* NGSPICE file created from calculator.ext - technology: sky130A

* Black-box entry subcircuit for sky130_fd_sc_hd__tapvpwrvgnd_1 abstract view
.subckt sky130_fd_sc_hd__tapvpwrvgnd_1 VGND VPWR
.ends

* Black-box entry subcircuit for sky130_fd_sc_hd__fill_2 abstract view
.subckt sky130_fd_sc_hd__fill_2 VGND VNB VPB VPWR
.ends

* Black-box entry subcircuit for sky130_ef_sc_hd__decap_12 abstract view
.subckt sky130_ef_sc_hd__decap_12 VGND VNB VPB VPWR
.ends

* Black-box entry subcircuit for sky130_fd_sc_hd__dfrtp_1 abstract view
.subckt sky130_fd_sc_hd__dfrtp_1 CLK D RESET_B VGND VNB VPB VPWR Q
.ends

* Black-box entry subcircuit for sky130_fd_sc_hd__fill_1 abstract view
.subckt sky130_fd_sc_hd__fill_1 VGND VNB VPB VPWR
.ends

* Black-box entry subcircuit for sky130_fd_sc_hd__clkbuf_4 abstract view
.subckt sky130_fd_sc_hd__clkbuf_4 A VGND VNB VPB VPWR X
.ends

* Black-box entry subcircuit for sky130_fd_sc_hd__clkbuf_8 abstract view
.subckt sky130_fd_sc_hd__clkbuf_8 A VGND VNB VPB VPWR X
.ends

* Black-box entry subcircuit for sky130_fd_sc_hd__clkbuf_1 abstract view
.subckt sky130_fd_sc_hd__clkbuf_1 A VGND VNB VPB VPWR X
.ends

* Black-box entry subcircuit for sky130_fd_sc_hd__nand2_1 abstract view
.subckt sky130_fd_sc_hd__nand2_1 A B VGND VNB VPB VPWR Y
.ends

* Black-box entry subcircuit for sky130_fd_sc_hd__o21bai_4 abstract view
.subckt sky130_fd_sc_hd__o21bai_4 A1 A2 B1_N VGND VNB VPB VPWR Y
.ends

* Black-box entry subcircuit for sky130_fd_sc_hd__decap_3 abstract view
.subckt sky130_fd_sc_hd__decap_3 VGND VNB VPB VPWR
.ends

* Black-box entry subcircuit for sky130_fd_sc_hd__decap_8 abstract view
.subckt sky130_fd_sc_hd__decap_8 VGND VNB VPB VPWR
.ends

* Black-box entry subcircuit for sky130_fd_sc_hd__mux2_1 abstract view
.subckt sky130_fd_sc_hd__mux2_1 A0 A1 S VGND VNB VPB VPWR X
.ends

* Black-box entry subcircuit for sky130_fd_sc_hd__o2111ai_4 abstract view
.subckt sky130_fd_sc_hd__o2111ai_4 A1 A2 B1 C1 D1 VGND VNB VPB VPWR Y
.ends

* Black-box entry subcircuit for sky130_fd_sc_hd__a32o_1 abstract view
.subckt sky130_fd_sc_hd__a32o_1 A1 A2 A3 B1 B2 VGND VNB VPB VPWR X
.ends

* Black-box entry subcircuit for sky130_fd_sc_hd__dlygate4sd3_1 abstract view
.subckt sky130_fd_sc_hd__dlygate4sd3_1 A VGND VNB VPB VPWR X
.ends

* Black-box entry subcircuit for sky130_fd_sc_hd__nor2_1 abstract view
.subckt sky130_fd_sc_hd__nor2_1 A B VGND VNB VPB VPWR Y
.ends

* Black-box entry subcircuit for sky130_fd_sc_hd__dfrtp_4 abstract view
.subckt sky130_fd_sc_hd__dfrtp_4 CLK D RESET_B VGND VNB VPB VPWR Q
.ends

* Black-box entry subcircuit for sky130_fd_sc_hd__decap_6 abstract view
.subckt sky130_fd_sc_hd__decap_6 VGND VNB VPB VPWR
.ends

* Black-box entry subcircuit for sky130_fd_sc_hd__buf_2 abstract view
.subckt sky130_fd_sc_hd__buf_2 A VGND VNB VPB VPWR X
.ends

* Black-box entry subcircuit for sky130_fd_sc_hd__a21o_1 abstract view
.subckt sky130_fd_sc_hd__a21o_1 A1 A2 B1 VGND VNB VPB VPWR X
.ends

* Black-box entry subcircuit for sky130_fd_sc_hd__decap_4 abstract view
.subckt sky130_fd_sc_hd__decap_4 VGND VNB VPB VPWR
.ends

* Black-box entry subcircuit for sky130_fd_sc_hd__or4_2 abstract view
.subckt sky130_fd_sc_hd__or4_2 A B C D VGND VNB VPB VPWR X
.ends

* Black-box entry subcircuit for sky130_fd_sc_hd__a221o_1 abstract view
.subckt sky130_fd_sc_hd__a221o_1 A1 A2 B1 B2 C1 VGND VNB VPB VPWR X
.ends

* Black-box entry subcircuit for sky130_fd_sc_hd__a21oi_2 abstract view
.subckt sky130_fd_sc_hd__a21oi_2 A1 A2 B1 VGND VNB VPB VPWR Y
.ends

* Black-box entry subcircuit for sky130_fd_sc_hd__and3b_1 abstract view
.subckt sky130_fd_sc_hd__and3b_1 A_N B C VGND VNB VPB VPWR X
.ends

* Black-box entry subcircuit for sky130_fd_sc_hd__inv_2 abstract view
.subckt sky130_fd_sc_hd__inv_2 A VGND VNB VPB VPWR Y
.ends

* Black-box entry subcircuit for sky130_fd_sc_hd__or4_1 abstract view
.subckt sky130_fd_sc_hd__or4_1 A B C D VGND VNB VPB VPWR X
.ends

* Black-box entry subcircuit for sky130_fd_sc_hd__a22o_1 abstract view
.subckt sky130_fd_sc_hd__a22o_1 A1 A2 B1 B2 VGND VNB VPB VPWR X
.ends

* Black-box entry subcircuit for sky130_fd_sc_hd__dfrtp_2 abstract view
.subckt sky130_fd_sc_hd__dfrtp_2 CLK D RESET_B VGND VNB VPB VPWR Q
.ends

* Black-box entry subcircuit for sky130_fd_sc_hd__xor2_2 abstract view
.subckt sky130_fd_sc_hd__xor2_2 A B VGND VNB VPB VPWR X
.ends

* Black-box entry subcircuit for sky130_fd_sc_hd__or4b_2 abstract view
.subckt sky130_fd_sc_hd__or4b_2 A B C D_N VGND VNB VPB VPWR X
.ends

* Black-box entry subcircuit for sky130_fd_sc_hd__o21a_1 abstract view
.subckt sky130_fd_sc_hd__o21a_1 A1 A2 B1 VGND VNB VPB VPWR X
.ends

* Black-box entry subcircuit for sky130_fd_sc_hd__o31ai_4 abstract view
.subckt sky130_fd_sc_hd__o31ai_4 A1 A2 A3 B1 VGND VNB VPB VPWR Y
.ends

* Black-box entry subcircuit for sky130_fd_sc_hd__xor2_4 abstract view
.subckt sky130_fd_sc_hd__xor2_4 A B VGND VNB VPB VPWR X
.ends

* Black-box entry subcircuit for sky130_fd_sc_hd__xnor2_1 abstract view
.subckt sky130_fd_sc_hd__xnor2_1 A B VGND VNB VPB VPWR Y
.ends

* Black-box entry subcircuit for sky130_fd_sc_hd__dfstp_1 abstract view
.subckt sky130_fd_sc_hd__dfstp_1 CLK D SET_B VGND VNB VPB VPWR Q
.ends

* Black-box entry subcircuit for sky130_fd_sc_hd__a31o_1 abstract view
.subckt sky130_fd_sc_hd__a31o_1 A1 A2 A3 B1 VGND VNB VPB VPWR X
.ends

* Black-box entry subcircuit for sky130_fd_sc_hd__xnor2_2 abstract view
.subckt sky130_fd_sc_hd__xnor2_2 A B VGND VNB VPB VPWR Y
.ends

* Black-box entry subcircuit for sky130_fd_sc_hd__xnor2_4 abstract view
.subckt sky130_fd_sc_hd__xnor2_4 A B VGND VNB VPB VPWR Y
.ends

* Black-box entry subcircuit for sky130_fd_sc_hd__and3_1 abstract view
.subckt sky130_fd_sc_hd__and3_1 A B C VGND VNB VPB VPWR X
.ends

* Black-box entry subcircuit for sky130_fd_sc_hd__xor2_1 abstract view
.subckt sky130_fd_sc_hd__xor2_1 A B VGND VNB VPB VPWR X
.ends

* Black-box entry subcircuit for sky130_fd_sc_hd__or2_1 abstract view
.subckt sky130_fd_sc_hd__or2_1 A B VGND VNB VPB VPWR X
.ends

* Black-box entry subcircuit for sky130_fd_sc_hd__or2b_2 abstract view
.subckt sky130_fd_sc_hd__or2b_2 A B_N VGND VNB VPB VPWR X
.ends

* Black-box entry subcircuit for sky130_fd_sc_hd__o2111ai_1 abstract view
.subckt sky130_fd_sc_hd__o2111ai_1 A1 A2 B1 C1 D1 VGND VNB VPB VPWR Y
.ends

* Black-box entry subcircuit for sky130_fd_sc_hd__a2bb2o_1 abstract view
.subckt sky130_fd_sc_hd__a2bb2o_1 A1_N A2_N B1 B2 VGND VNB VPB VPWR X
.ends

* Black-box entry subcircuit for sky130_fd_sc_hd__or3_1 abstract view
.subckt sky130_fd_sc_hd__or3_1 A B C VGND VNB VPB VPWR X
.ends

* Black-box entry subcircuit for sky130_fd_sc_hd__nor3_1 abstract view
.subckt sky130_fd_sc_hd__nor3_1 A B C VGND VNB VPB VPWR Y
.ends

* Black-box entry subcircuit for sky130_fd_sc_hd__clkbuf_16 abstract view
.subckt sky130_fd_sc_hd__clkbuf_16 A VGND VNB VPB VPWR X
.ends

* Black-box entry subcircuit for sky130_fd_sc_hd__and2_1 abstract view
.subckt sky130_fd_sc_hd__and2_1 A B VGND VNB VPB VPWR X
.ends

* Black-box entry subcircuit for sky130_fd_sc_hd__and2_2 abstract view
.subckt sky130_fd_sc_hd__and2_2 A B VGND VNB VPB VPWR X
.ends

* Black-box entry subcircuit for sky130_fd_sc_hd__a21oi_1 abstract view
.subckt sky130_fd_sc_hd__a21oi_1 A1 A2 B1 VGND VNB VPB VPWR Y
.ends

* Black-box entry subcircuit for sky130_fd_sc_hd__buf_6 abstract view
.subckt sky130_fd_sc_hd__buf_6 A VGND VNB VPB VPWR X
.ends

* Black-box entry subcircuit for sky130_fd_sc_hd__a22oi_1 abstract view
.subckt sky130_fd_sc_hd__a22oi_1 A1 A2 B1 B2 VGND VNB VPB VPWR Y
.ends

* Black-box entry subcircuit for sky130_fd_sc_hd__o21bai_1 abstract view
.subckt sky130_fd_sc_hd__o21bai_1 A1 A2 B1_N VGND VNB VPB VPWR Y
.ends

* Black-box entry subcircuit for sky130_fd_sc_hd__and4b_1 abstract view
.subckt sky130_fd_sc_hd__and4b_1 A_N B C D VGND VNB VPB VPWR X
.ends

* Black-box entry subcircuit for sky130_fd_sc_hd__a211o_1 abstract view
.subckt sky130_fd_sc_hd__a211o_1 A1 A2 B1 C1 VGND VNB VPB VPWR X
.ends

* Black-box entry subcircuit for sky130_fd_sc_hd__o21ai_4 abstract view
.subckt sky130_fd_sc_hd__o21ai_4 A1 A2 B1 VGND VNB VPB VPWR Y
.ends

* Black-box entry subcircuit for sky130_fd_sc_hd__or2b_1 abstract view
.subckt sky130_fd_sc_hd__or2b_1 A B_N VGND VNB VPB VPWR X
.ends

* Black-box entry subcircuit for sky130_fd_sc_hd__or3b_1 abstract view
.subckt sky130_fd_sc_hd__or3b_1 A B C_N VGND VNB VPB VPWR X
.ends

* Black-box entry subcircuit for sky130_fd_sc_hd__o31ai_2 abstract view
.subckt sky130_fd_sc_hd__o31ai_2 A1 A2 A3 B1 VGND VNB VPB VPWR Y
.ends

* Black-box entry subcircuit for sky130_fd_sc_hd__o22a_1 abstract view
.subckt sky130_fd_sc_hd__o22a_1 A1 A2 B1 B2 VGND VNB VPB VPWR X
.ends

* Black-box entry subcircuit for sky130_fd_sc_hd__o21ai_1 abstract view
.subckt sky130_fd_sc_hd__o21ai_1 A1 A2 B1 VGND VNB VPB VPWR Y
.ends

* Black-box entry subcircuit for sky130_fd_sc_hd__buf_4 abstract view
.subckt sky130_fd_sc_hd__buf_4 A VGND VNB VPB VPWR X
.ends

* Black-box entry subcircuit for sky130_fd_sc_hd__and2b_1 abstract view
.subckt sky130_fd_sc_hd__and2b_1 A_N B VGND VNB VPB VPWR X
.ends

* Black-box entry subcircuit for sky130_fd_sc_hd__buf_1 abstract view
.subckt sky130_fd_sc_hd__buf_1 A VGND VNB VPB VPWR X
.ends

* Black-box entry subcircuit for sky130_fd_sc_hd__and4bb_1 abstract view
.subckt sky130_fd_sc_hd__and4bb_1 A_N B_N C D VGND VNB VPB VPWR X
.ends

* Black-box entry subcircuit for sky130_fd_sc_hd__a21boi_4 abstract view
.subckt sky130_fd_sc_hd__a21boi_4 A1 A2 B1_N VGND VNB VPB VPWR Y
.ends

* Black-box entry subcircuit for sky130_fd_sc_hd__o21ba_1 abstract view
.subckt sky130_fd_sc_hd__o21ba_1 A1 A2 B1_N VGND VNB VPB VPWR X
.ends

* Black-box entry subcircuit for sky130_fd_sc_hd__or4b_1 abstract view
.subckt sky130_fd_sc_hd__or4b_1 A B C D_N VGND VNB VPB VPWR X
.ends

* Black-box entry subcircuit for sky130_fd_sc_hd__a211oi_2 abstract view
.subckt sky130_fd_sc_hd__a211oi_2 A1 A2 B1 C1 VGND VNB VPB VPWR Y
.ends

* Black-box entry subcircuit for sky130_fd_sc_hd__nand3_1 abstract view
.subckt sky130_fd_sc_hd__nand3_1 A B C VGND VNB VPB VPWR Y
.ends

* Black-box entry subcircuit for sky130_fd_sc_hd__or4bb_1 abstract view
.subckt sky130_fd_sc_hd__or4bb_1 A B C_N D_N VGND VNB VPB VPWR X
.ends

* Black-box entry subcircuit for sky130_fd_sc_hd__buf_8 abstract view
.subckt sky130_fd_sc_hd__buf_8 A VGND VNB VPB VPWR X
.ends

* Black-box entry subcircuit for sky130_fd_sc_hd__dlymetal6s2s_1 abstract view
.subckt sky130_fd_sc_hd__dlymetal6s2s_1 A VGND VNB VPB VPWR X
.ends

* Black-box entry subcircuit for sky130_fd_sc_hd__nor2_2 abstract view
.subckt sky130_fd_sc_hd__nor2_2 A B VGND VNB VPB VPWR Y
.ends

* Black-box entry subcircuit for sky130_fd_sc_hd__o21ai_2 abstract view
.subckt sky130_fd_sc_hd__o21ai_2 A1 A2 B1 VGND VNB VPB VPWR Y
.ends

* Black-box entry subcircuit for sky130_fd_sc_hd__nand2_2 abstract view
.subckt sky130_fd_sc_hd__nand2_2 A B VGND VNB VPB VPWR Y
.ends

* Black-box entry subcircuit for sky130_fd_sc_hd__or3b_2 abstract view
.subckt sky130_fd_sc_hd__or3b_2 A B C_N VGND VNB VPB VPWR X
.ends

* Black-box entry subcircuit for sky130_fd_sc_hd__o41a_1 abstract view
.subckt sky130_fd_sc_hd__o41a_1 A1 A2 A3 A4 B1 VGND VNB VPB VPWR X
.ends

* Black-box entry subcircuit for sky130_fd_sc_hd__clkbuf_2 abstract view
.subckt sky130_fd_sc_hd__clkbuf_2 A VGND VNB VPB VPWR X
.ends

* Black-box entry subcircuit for sky130_fd_sc_hd__nand3_4 abstract view
.subckt sky130_fd_sc_hd__nand3_4 A B C VGND VNB VPB VPWR Y
.ends

* Black-box entry subcircuit for sky130_fd_sc_hd__a21oi_4 abstract view
.subckt sky130_fd_sc_hd__a21oi_4 A1 A2 B1 VGND VNB VPB VPWR Y
.ends

* Black-box entry subcircuit for sky130_fd_sc_hd__and2b_2 abstract view
.subckt sky130_fd_sc_hd__and2b_2 A_N B VGND VNB VPB VPWR X
.ends

* Black-box entry subcircuit for sky130_fd_sc_hd__o31a_1 abstract view
.subckt sky130_fd_sc_hd__o31a_1 A1 A2 A3 B1 VGND VNB VPB VPWR X
.ends

* Black-box entry subcircuit for sky130_fd_sc_hd__o211a_1 abstract view
.subckt sky130_fd_sc_hd__o211a_1 A1 A2 B1 C1 VGND VNB VPB VPWR X
.ends

* Black-box entry subcircuit for sky130_fd_sc_hd__or2_2 abstract view
.subckt sky130_fd_sc_hd__or2_2 A B VGND VNB VPB VPWR X
.ends

* Black-box entry subcircuit for sky130_fd_sc_hd__nor2_8 abstract view
.subckt sky130_fd_sc_hd__nor2_8 A B VGND VNB VPB VPWR Y
.ends

* Black-box entry subcircuit for sky130_fd_sc_hd__a211oi_1 abstract view
.subckt sky130_fd_sc_hd__a211oi_1 A1 A2 B1 C1 VGND VNB VPB VPWR Y
.ends

* Black-box entry subcircuit for sky130_fd_sc_hd__a211o_4 abstract view
.subckt sky130_fd_sc_hd__a211o_4 A1 A2 B1 C1 VGND VNB VPB VPWR X
.ends

* Black-box entry subcircuit for sky130_fd_sc_hd__o2bb2a_1 abstract view
.subckt sky130_fd_sc_hd__o2bb2a_1 A1_N A2_N B1 B2 VGND VNB VPB VPWR X
.ends

* Black-box entry subcircuit for sky130_fd_sc_hd__a311o_1 abstract view
.subckt sky130_fd_sc_hd__a311o_1 A1 A2 A3 B1 C1 VGND VNB VPB VPWR X
.ends

* Black-box entry subcircuit for sky130_fd_sc_hd__nor3_2 abstract view
.subckt sky130_fd_sc_hd__nor3_2 A B C VGND VNB VPB VPWR Y
.ends

* Black-box entry subcircuit for sky130_fd_sc_hd__o21a_2 abstract view
.subckt sky130_fd_sc_hd__o21a_2 A1 A2 B1 VGND VNB VPB VPWR X
.ends

.subckt calculator VGND VPWR blue clk nrst pb[0] pb[1] pb[2] pb[3] pb[4] pb[5] pb[6]
+ pb[7] pb[8] pb[9] red ss[0] ss[10] ss[11] ss[12] ss[13] ss[1] ss[2] ss[3] ss[4]
+ ss[5] ss[6] ss[7] ss[8] ss[9]
XTAP_177 VGND VPWR sky130_fd_sc_hd__tapvpwrvgnd_1
XTAP_188 VGND VPWR sky130_fd_sc_hd__tapvpwrvgnd_1
XTAP_199 VGND VPWR sky130_fd_sc_hd__tapvpwrvgnd_1
XFILLER_0_17_222 VGND VGND VPWR VPWR sky130_fd_sc_hd__fill_2
XFILLER_0_23_214 VGND VGND VPWR VPWR sky130_fd_sc_hd__fill_2
XFILLER_0_23_225 VGND VGND VPWR VPWR sky130_ef_sc_hd__decap_12
XFILLER_0_23_269 VGND VGND VPWR VPWR sky130_fd_sc_hd__fill_2
XFILLER_0_3_39 VGND VGND VPWR VPWR sky130_ef_sc_hd__decap_12
XFILLER_0_13_40 VGND VGND VPWR VPWR sky130_ef_sc_hd__decap_12
XFILLER_0_13_62 VGND VGND VPWR VPWR sky130_ef_sc_hd__decap_12
X_0985_ clknet_4_8_0_clk net7 net32 VGND VGND VPWR VPWR u3.keypad_async\[1\] sky130_fd_sc_hd__dfrtp_1
XFILLER_0_14_203 VGND VGND VPWR VPWR sky130_fd_sc_hd__fill_1
X_0770_ _0333_ VGND VGND VPWR VPWR _0334_ sky130_fd_sc_hd__clkbuf_4
X_0968_ clknet_4_14_0_clk _0010_ net35 VGND VGND VPWR VPWR u1.state\[8\] sky130_fd_sc_hd__dfrtp_1
Xclkbuf_4_12_0_clk clknet_0_clk VGND VGND VPWR VPWR clknet_4_12_0_clk sky130_fd_sc_hd__clkbuf_8
X_0899_ _0439_ VGND VGND VPWR VPWR _0085_ sky130_fd_sc_hd__clkbuf_1
XFILLER_0_37_169 VGND VGND VPWR VPWR sky130_ef_sc_hd__decap_12
XFILLER_0_45_27 VGND VGND VPWR VPWR sky130_fd_sc_hd__fill_1
XFILLER_0_0_29 VGND VGND VPWR VPWR sky130_fd_sc_hd__fill_2
XFILLER_0_36_180 VGND VGND VPWR VPWR sky130_fd_sc_hd__fill_1
XFILLER_0_9_27 VGND VGND VPWR VPWR sky130_ef_sc_hd__decap_12
X_0822_ _0236_ _0235_ VGND VGND VPWR VPWR _0376_ sky130_fd_sc_hd__nand2_1
X_0684_ _0281_ _0283_ _0128_ VGND VGND VPWR VPWR _0284_ sky130_fd_sc_hd__o21bai_4
X_0753_ _0322_ VGND VGND VPWR VPWR _0056_ sky130_fd_sc_hd__clkbuf_1
XFILLER_0_3_269 VGND VGND VPWR VPWR sky130_fd_sc_hd__fill_2
XFILLER_0_10_85 VGND VGND VPWR VPWR sky130_ef_sc_hd__decap_12
X_1098_ clknet_4_15_0_clk _0106_ net35 VGND VGND VPWR VPWR u1.state\[14\] sky130_fd_sc_hd__dfrtp_1
XFILLER_0_19_169 VGND VGND VPWR VPWR sky130_fd_sc_hd__decap_3
XFILLER_0_33_150 VGND VGND VPWR VPWR sky130_fd_sc_hd__decap_8
X_1021_ clknet_4_12_0_clk _0035_ net34 VGND VGND VPWR VPWR u5.reg3\[0\] sky130_fd_sc_hd__dfrtp_1
X_0805_ u5.reg_val\[7\] _0361_ _0340_ VGND VGND VPWR VPWR _0362_ sky130_fd_sc_hd__mux2_1
X_0667_ _0255_ _0264_ _0265_ _0268_ u8.new_op1\[8\] VGND VGND VPWR VPWR _0269_ sky130_fd_sc_hd__o2111ai_4
X_0598_ _0121_ _0195_ _0203_ net77 _0174_ VGND VGND VPWR VPWR _0020_ sky130_fd_sc_hd__a32o_1
X_0736_ net103 u4.op1\[5\] _0307_ VGND VGND VPWR VPWR _0313_ sky130_fd_sc_hd__mux2_1
XFILLER_0_34_3 VGND VGND VPWR VPWR sky130_ef_sc_hd__decap_12
XFILLER_0_15_161 VGND VGND VPWR VPWR sky130_fd_sc_hd__fill_2
Xhold74 u5.reg3\[7\] VGND VGND VPWR VPWR net110 sky130_fd_sc_hd__dlygate4sd3_1
Xhold52 u5.reg2\[7\] VGND VGND VPWR VPWR net88 sky130_fd_sc_hd__dlygate4sd3_1
Xhold63 u5.reg3\[6\] VGND VGND VPWR VPWR net99 sky130_fd_sc_hd__dlygate4sd3_1
XFILLER_0_26_29 VGND VGND VPWR VPWR sky130_fd_sc_hd__fill_2
Xhold41 u4.op1\[5\] VGND VGND VPWR VPWR net77 sky130_fd_sc_hd__dlygate4sd3_1
Xhold30 u1.state\[8\] VGND VGND VPWR VPWR net66 sky130_fd_sc_hd__dlygate4sd3_1
Xhold96 u4.op1\[8\] VGND VGND VPWR VPWR net132 sky130_fd_sc_hd__dlygate4sd3_1
XFILLER_0_38_231 VGND VGND VPWR VPWR sky130_fd_sc_hd__fill_2
Xhold85 u4.ssdec\[2\] VGND VGND VPWR VPWR net121 sky130_fd_sc_hd__dlygate4sd3_1
XFILLER_0_38_253 VGND VGND VPWR VPWR sky130_ef_sc_hd__decap_12
XFILLER_0_38_242 VGND VGND VPWR VPWR sky130_fd_sc_hd__fill_2
XTAP_304 VGND VPWR sky130_fd_sc_hd__tapvpwrvgnd_1
X_0521_ _0141_ _0146_ VGND VGND VPWR VPWR _0149_ sky130_fd_sc_hd__nor2_1
XFILLER_0_21_153 VGND VGND VPWR VPWR sky130_fd_sc_hd__decap_8
X_1004_ clknet_4_4_0_clk _0033_ net31 VGND VGND VPWR VPWR u1.keycode\[7\] sky130_fd_sc_hd__dfrtp_4
XFILLER_0_12_131 VGND VGND VPWR VPWR sky130_fd_sc_hd__fill_1
X_0719_ _0303_ VGND VGND VPWR VPWR _0041_ sky130_fd_sc_hd__clkbuf_1
XFILLER_0_12_197 VGND VGND VPWR VPWR sky130_fd_sc_hd__decap_8
XFILLER_0_35_234 VGND VGND VPWR VPWR sky130_fd_sc_hd__decap_6
XFILLER_0_35_223 VGND VGND VPWR VPWR sky130_fd_sc_hd__fill_1
Xoutput20 net20 VGND VGND VPWR VPWR ss[2] sky130_fd_sc_hd__buf_2
XFILLER_0_5_106 VGND VGND VPWR VPWR sky130_fd_sc_hd__decap_6
XFILLER_0_26_245 VGND VGND VPWR VPWR sky130_fd_sc_hd__decap_6
XTAP_134 VGND VPWR sky130_fd_sc_hd__tapvpwrvgnd_1
XTAP_123 VGND VPWR sky130_fd_sc_hd__tapvpwrvgnd_1
XTAP_112 VGND VPWR sky130_fd_sc_hd__tapvpwrvgnd_1
XTAP_101 VGND VPWR sky130_fd_sc_hd__tapvpwrvgnd_1
XTAP_145 VGND VPWR sky130_fd_sc_hd__tapvpwrvgnd_1
XTAP_156 VGND VPWR sky130_fd_sc_hd__tapvpwrvgnd_1
XTAP_167 VGND VPWR sky130_fd_sc_hd__tapvpwrvgnd_1
XTAP_178 VGND VPWR sky130_fd_sc_hd__tapvpwrvgnd_1
XTAP_189 VGND VPWR sky130_fd_sc_hd__tapvpwrvgnd_1
X_0504_ _0136_ u1.state\[7\] u1.state\[8\] VGND VGND VPWR VPWR _0137_ sky130_fd_sc_hd__a21o_1
XFILLER_0_23_237 VGND VGND VPWR VPWR sky130_ef_sc_hd__decap_12
X_0984_ clknet_4_15_0_clk net6 net35 VGND VGND VPWR VPWR u3.keypad_async\[0\] sky130_fd_sc_hd__dfrtp_1
XFILLER_0_13_52 VGND VGND VPWR VPWR sky130_fd_sc_hd__decap_4
XFILLER_0_13_74 VGND VGND VPWR VPWR sky130_fd_sc_hd__decap_4
XFILLER_0_1_164 VGND VGND VPWR VPWR sky130_fd_sc_hd__fill_1
XFILLER_0_13_270 VGND VGND VPWR VPWR sky130_fd_sc_hd__fill_1
X_0967_ clknet_4_14_0_clk net62 net35 VGND VGND VPWR VPWR u1.state\[7\] sky130_fd_sc_hd__dfrtp_1
X_0898_ u8.op2\[6\] u5.reg_val\[6\] u8.b_assign_op2 VGND VGND VPWR VPWR _0439_ sky130_fd_sc_hd__mux2_1
XFILLER_0_10_251 VGND VGND VPWR VPWR sky130_fd_sc_hd__fill_1
X_0752_ net86 u4.op1\[3\] _0318_ VGND VGND VPWR VPWR _0322_ sky130_fd_sc_hd__mux2_1
XFILLER_0_9_39 VGND VGND VPWR VPWR sky130_ef_sc_hd__decap_12
X_0821_ _0372_ _0374_ VGND VGND VPWR VPWR _0375_ sky130_fd_sc_hd__nand2_1
X_0683_ u1.state\[10\] u1.state\[14\] u1.state\[12\] _0282_ VGND VGND VPWR VPWR _0283_
+ sky130_fd_sc_hd__or4_2
XFILLER_0_10_97 VGND VGND VPWR VPWR sky130_fd_sc_hd__decap_8
XFILLER_0_19_51 VGND VGND VPWR VPWR sky130_fd_sc_hd__decap_4
X_1097_ clknet_4_10_0_clk net47 net32 VGND VGND VPWR VPWR u8.b_assign_op2 sky130_fd_sc_hd__dfrtp_4
XFILLER_0_25_107 VGND VGND VPWR VPWR sky130_fd_sc_hd__decap_4
Xclkbuf_4_11_0_clk clknet_0_clk VGND VGND VPWR VPWR clknet_4_11_0_clk sky130_fd_sc_hd__clkbuf_8
X_1020_ clknet_4_14_0_clk u6.next_reg_num\[2\] net33 VGND VGND VPWR VPWR u5.reg_num\[2\]
+ sky130_fd_sc_hd__dfrtp_1
X_0804_ u5.reg2\[7\] _0332_ net28 u5.reg1\[7\] _0360_ VGND VGND VPWR VPWR _0361_ sky130_fd_sc_hd__a221o_1
X_0735_ _0312_ VGND VGND VPWR VPWR _0048_ sky130_fd_sc_hd__clkbuf_1
X_0666_ _0266_ _0258_ _0267_ VGND VGND VPWR VPWR _0268_ sky130_fd_sc_hd__a21oi_2
X_0597_ u1.keycode\[6\] _0201_ _0202_ VGND VGND VPWR VPWR _0203_ sky130_fd_sc_hd__a21o_1
XFILLER_0_1_51 VGND VGND VPWR VPWR sky130_fd_sc_hd__decap_4
XFILLER_0_1_62 VGND VGND VPWR VPWR sky130_ef_sc_hd__decap_12
XFILLER_0_27_3 VGND VGND VPWR VPWR sky130_fd_sc_hd__fill_2
Xhold53 u5.reg3\[0\] VGND VGND VPWR VPWR net89 sky130_fd_sc_hd__dlygate4sd3_1
Xhold75 u5.reg4\[8\] VGND VGND VPWR VPWR net111 sky130_fd_sc_hd__dlygate4sd3_1
Xhold20 u1.keypad_sync\[1\] VGND VGND VPWR VPWR net56 sky130_fd_sc_hd__dlygate4sd3_1
Xhold86 u5.reg2\[0\] VGND VGND VPWR VPWR net122 sky130_fd_sc_hd__dlygate4sd3_1
Xhold97 u1.state\[2\] VGND VGND VPWR VPWR net133 sky130_fd_sc_hd__dlygate4sd3_1
Xhold31 u7.state\[0\] VGND VGND VPWR VPWR net67 sky130_fd_sc_hd__dlygate4sd3_1
Xhold64 u5.reg4\[5\] VGND VGND VPWR VPWR net100 sky130_fd_sc_hd__dlygate4sd3_1
Xhold42 u5.reg4\[1\] VGND VGND VPWR VPWR net78 sky130_fd_sc_hd__dlygate4sd3_1
XFILLER_0_42_29 VGND VGND VPWR VPWR sky130_ef_sc_hd__decap_12
XFILLER_0_42_18 VGND VGND VPWR VPWR sky130_fd_sc_hd__decap_8
XFILLER_0_38_265 VGND VGND VPWR VPWR sky130_fd_sc_hd__decap_6
XTAP_305 VGND VPWR sky130_fd_sc_hd__tapvpwrvgnd_1
XFILLER_0_6_29 VGND VGND VPWR VPWR sky130_fd_sc_hd__decap_8
X_0520_ _0148_ VGND VGND VPWR VPWR net20 sky130_fd_sc_hd__clkbuf_1
XFILLER_0_13_9 VGND VGND VPWR VPWR sky130_fd_sc_hd__fill_1
XFILLER_0_16_41 VGND VGND VPWR VPWR sky130_fd_sc_hd__decap_8
XFILLER_0_16_63 VGND VGND VPWR VPWR sky130_fd_sc_hd__fill_1
X_1003_ clknet_4_4_0_clk _0032_ net31 VGND VGND VPWR VPWR u1.keycode\[6\] sky130_fd_sc_hd__dfrtp_4
XFILLER_0_8_126 VGND VGND VPWR VPWR sky130_fd_sc_hd__fill_2
XFILLER_0_8_104 VGND VGND VPWR VPWR sky130_fd_sc_hd__fill_2
X_0718_ u4.op1\[6\] net99 _0296_ VGND VGND VPWR VPWR _0303_ sky130_fd_sc_hd__mux2_1
X_0649_ _0237_ u8.op1\[5\] u8.op1\[4\] VGND VGND VPWR VPWR _0251_ sky130_fd_sc_hd__and3b_1
Xoutput21 net21 VGND VGND VPWR VPWR ss[3] sky130_fd_sc_hd__buf_2
XTAP_124 VGND VPWR sky130_fd_sc_hd__tapvpwrvgnd_1
XTAP_113 VGND VPWR sky130_fd_sc_hd__tapvpwrvgnd_1
XTAP_102 VGND VPWR sky130_fd_sc_hd__tapvpwrvgnd_1
XTAP_135 VGND VPWR sky130_fd_sc_hd__tapvpwrvgnd_1
XTAP_146 VGND VPWR sky130_fd_sc_hd__tapvpwrvgnd_1
XTAP_157 VGND VPWR sky130_fd_sc_hd__tapvpwrvgnd_1
XTAP_168 VGND VPWR sky130_fd_sc_hd__tapvpwrvgnd_1
XTAP_179 VGND VPWR sky130_fd_sc_hd__tapvpwrvgnd_1
X_0503_ net5 VGND VGND VPWR VPWR _0136_ sky130_fd_sc_hd__inv_2
XFILLER_0_11_6 VGND VGND VPWR VPWR sky130_fd_sc_hd__decap_4
XFILLER_0_32_216 VGND VGND VPWR VPWR sky130_fd_sc_hd__decap_8
XFILLER_0_7_83 VGND VGND VPWR VPWR sky130_fd_sc_hd__decap_3
X_0983_ clknet_4_10_0_clk net37 net32 VGND VGND VPWR VPWR u3.keypad_sync\[1\] sky130_fd_sc_hd__dfrtp_1
XFILLER_0_13_97 VGND VGND VPWR VPWR sky130_fd_sc_hd__fill_1
XFILLER_0_1_143 VGND VGND VPWR VPWR sky130_fd_sc_hd__fill_1
XFILLER_0_9_210 VGND VGND VPWR VPWR sky130_fd_sc_hd__decap_3
XFILLER_0_9_265 VGND VGND VPWR VPWR sky130_fd_sc_hd__decap_6
XFILLER_0_11_219 VGND VGND VPWR VPWR sky130_fd_sc_hd__decap_4
XFILLER_0_24_85 VGND VGND VPWR VPWR sky130_fd_sc_hd__decap_3
X_0966_ clknet_4_13_0_clk _0001_ net35 VGND VGND VPWR VPWR u1.store_dig sky130_fd_sc_hd__dfrtp_1
X_0897_ _0438_ VGND VGND VPWR VPWR _0084_ sky130_fd_sc_hd__clkbuf_1
XFILLER_0_4_62 VGND VGND VPWR VPWR sky130_fd_sc_hd__fill_1
XFILLER_0_37_105 VGND VGND VPWR VPWR sky130_fd_sc_hd__fill_2
XFILLER_0_45_193 VGND VGND VPWR VPWR sky130_fd_sc_hd__decap_3
XFILLER_0_10_32 VGND VGND VPWR VPWR sky130_fd_sc_hd__decap_8
X_0820_ _0373_ VGND VGND VPWR VPWR _0374_ sky130_fd_sc_hd__inv_2
X_0751_ _0321_ VGND VGND VPWR VPWR _0055_ sky130_fd_sc_hd__clkbuf_1
X_0682_ u1.state\[1\] u1.state\[2\] u1.state\[6\] u1.state\[9\] VGND VGND VPWR VPWR
+ _0282_ sky130_fd_sc_hd__or4_1
X_1096_ clknet_4_8_0_clk net48 net33 VGND VGND VPWR VPWR u8.b_assign_op1 sky130_fd_sc_hd__dfrtp_4
XFILLER_0_19_96 VGND VGND VPWR VPWR sky130_fd_sc_hd__decap_8
XFILLER_0_34_108 VGND VGND VPWR VPWR sky130_ef_sc_hd__decap_12
XFILLER_0_42_141 VGND VGND VPWR VPWR sky130_fd_sc_hd__decap_4
X_0949_ net119 VGND VGND VPWR VPWR _0109_ sky130_fd_sc_hd__clkbuf_1
XFILLER_0_18_160 VGND VGND VPWR VPWR sky130_ef_sc_hd__decap_12
X_0803_ u5.reg3\[7\] _0334_ _0336_ u5.reg4\[7\] VGND VGND VPWR VPWR _0360_ sky130_fd_sc_hd__a22o_1
X_0665_ _0260_ _0262_ VGND VGND VPWR VPWR _0267_ sky130_fd_sc_hd__nor2_1
X_0734_ net82 u4.op1\[4\] _0307_ VGND VGND VPWR VPWR _0312_ sky130_fd_sc_hd__mux2_1
X_0596_ _0198_ _0200_ _0187_ VGND VGND VPWR VPWR _0202_ sky130_fd_sc_hd__a21o_1
X_1079_ clknet_4_8_0_clk _0089_ net33 VGND VGND VPWR VPWR u8.new_op1\[1\] sky130_fd_sc_hd__dfrtp_2
XFILLER_0_1_74 VGND VGND VPWR VPWR sky130_fd_sc_hd__decap_4
Xhold54 u5.reg4\[0\] VGND VGND VPWR VPWR net90 sky130_fd_sc_hd__dlygate4sd3_1
Xhold87 u1.state\[14\] VGND VGND VPWR VPWR net123 sky130_fd_sc_hd__dlygate4sd3_1
Xhold65 u5.reg2\[8\] VGND VGND VPWR VPWR net101 sky130_fd_sc_hd__dlygate4sd3_1
Xhold43 u5.reg1\[7\] VGND VGND VPWR VPWR net79 sky130_fd_sc_hd__dlygate4sd3_1
Xhold10 u1.s_e_detect_w.s_signal VGND VGND VPWR VPWR net46 sky130_fd_sc_hd__dlygate4sd3_1
Xhold32 _0011_ VGND VGND VPWR VPWR net68 sky130_fd_sc_hd__dlygate4sd3_1
Xhold98 u5.reg_val\[3\] VGND VGND VPWR VPWR net134 sky130_fd_sc_hd__dlygate4sd3_1
Xhold21 u6.reg_sync\[3\] VGND VGND VPWR VPWR net57 sky130_fd_sc_hd__dlygate4sd3_1
Xhold76 u5.reg3\[2\] VGND VGND VPWR VPWR net112 sky130_fd_sc_hd__dlygate4sd3_1
XFILLER_0_21_122 VGND VGND VPWR VPWR sky130_ef_sc_hd__decap_12
XTAP_306 VGND VPWR sky130_fd_sc_hd__tapvpwrvgnd_1
X_1002_ clknet_4_4_0_clk _0031_ net31 VGND VGND VPWR VPWR u1.keycode\[5\] sky130_fd_sc_hd__dfrtp_4
X_0648_ u8.op2\[6\] _0249_ VGND VGND VPWR VPWR _0250_ sky130_fd_sc_hd__xor2_2
XFILLER_0_12_100 VGND VGND VPWR VPWR sky130_fd_sc_hd__decap_8
XFILLER_0_12_166 VGND VGND VPWR VPWR sky130_fd_sc_hd__fill_1
X_0717_ _0302_ VGND VGND VPWR VPWR _0040_ sky130_fd_sc_hd__clkbuf_1
X_0579_ u1.keycode\[8\] VGND VGND VPWR VPWR _0187_ sky130_fd_sc_hd__inv_2
Xclkbuf_4_10_0_clk clknet_0_clk VGND VGND VPWR VPWR clknet_4_10_0_clk sky130_fd_sc_hd__clkbuf_8
XFILLER_0_9_3 VGND VGND VPWR VPWR sky130_ef_sc_hd__decap_12
Xoutput22 net22 VGND VGND VPWR VPWR ss[4] sky130_fd_sc_hd__clkbuf_4
XTAP_114 VGND VPWR sky130_fd_sc_hd__tapvpwrvgnd_1
XTAP_103 VGND VPWR sky130_fd_sc_hd__tapvpwrvgnd_1
X_0502_ net60 _0134_ net48 VGND VGND VPWR VPWR _0014_ sky130_fd_sc_hd__a21o_1
XTAP_125 VGND VPWR sky130_fd_sc_hd__tapvpwrvgnd_1
XTAP_136 VGND VPWR sky130_fd_sc_hd__tapvpwrvgnd_1
XTAP_147 VGND VPWR sky130_fd_sc_hd__tapvpwrvgnd_1
XTAP_158 VGND VPWR sky130_fd_sc_hd__tapvpwrvgnd_1
XTAP_169 VGND VPWR sky130_fd_sc_hd__tapvpwrvgnd_1
XFILLER_0_4_174 VGND VGND VPWR VPWR sky130_ef_sc_hd__decap_12
XFILLER_0_4_141 VGND VGND VPWR VPWR sky130_ef_sc_hd__decap_12
XFILLER_0_23_206 VGND VGND VPWR VPWR sky130_fd_sc_hd__decap_8
XFILLER_0_31_261 VGND VGND VPWR VPWR sky130_fd_sc_hd__decap_8
X_0982_ clknet_4_15_0_clk net39 net35 VGND VGND VPWR VPWR u3.keypad_sync\[0\] sky130_fd_sc_hd__dfrtp_1
XFILLER_0_1_111 VGND VGND VPWR VPWR sky130_fd_sc_hd__fill_1
XFILLER_0_1_122 VGND VGND VPWR VPWR sky130_fd_sc_hd__fill_2
XFILLER_0_20_209 VGND VGND VPWR VPWR sky130_ef_sc_hd__decap_12
XFILLER_0_11_209 VGND VGND VPWR VPWR sky130_fd_sc_hd__decap_4
XFILLER_0_24_97 VGND VGND VPWR VPWR sky130_ef_sc_hd__decap_12
XFILLER_0_40_85 VGND VGND VPWR VPWR sky130_ef_sc_hd__decap_12
XFILLER_0_40_52 VGND VGND VPWR VPWR sky130_ef_sc_hd__decap_12
XFILLER_0_40_41 VGND VGND VPWR VPWR sky130_fd_sc_hd__decap_8
X_0896_ u8.op2\[5\] u5.reg_val\[5\] u8.b_assign_op2 VGND VGND VPWR VPWR _0438_ sky130_fd_sc_hd__mux2_1
X_0965_ clknet_4_14_0_clk _0008_ net35 VGND VGND VPWR VPWR u1.state\[4\] sky130_fd_sc_hd__dfrtp_1
XFILLER_0_4_85 VGND VGND VPWR VPWR sky130_fd_sc_hd__fill_1
XFILLER_0_4_41 VGND VGND VPWR VPWR sky130_fd_sc_hd__decap_8
XFILLER_0_10_22 VGND VGND VPWR VPWR sky130_fd_sc_hd__decap_6
X_0750_ net102 u4.op1\[2\] _0318_ VGND VGND VPWR VPWR _0321_ sky130_fd_sc_hd__mux2_1
X_0681_ u1.state\[13\] _0280_ u1.state\[7\] _0174_ VGND VGND VPWR VPWR _0281_ sky130_fd_sc_hd__or4b_2
XFILLER_0_19_31 VGND VGND VPWR VPWR sky130_fd_sc_hd__decap_3
X_1095_ clknet_4_7_0_clk _0105_ net31 VGND VGND VPWR VPWR u5.reg4\[8\] sky130_fd_sc_hd__dfrtp_1
XFILLER_0_35_41 VGND VGND VPWR VPWR sky130_ef_sc_hd__decap_12
X_0948_ net118 u1.state\[9\] _0128_ VGND VGND VPWR VPWR _0465_ sky130_fd_sc_hd__mux2_1
X_0879_ _0247_ _0254_ _0266_ VGND VGND VPWR VPWR _0427_ sky130_fd_sc_hd__o21a_1
XFILLER_0_0_209 VGND VGND VPWR VPWR sky130_ef_sc_hd__decap_12
XFILLER_0_18_172 VGND VGND VPWR VPWR sky130_fd_sc_hd__decap_4
X_0802_ _0359_ VGND VGND VPWR VPWR _0068_ sky130_fd_sc_hd__clkbuf_1
X_0733_ _0311_ VGND VGND VPWR VPWR _0047_ sky130_fd_sc_hd__clkbuf_1
X_0664_ _0260_ _0262_ VGND VGND VPWR VPWR _0266_ sky130_fd_sc_hd__nand2_1
X_0595_ _0198_ _0200_ VGND VGND VPWR VPWR _0201_ sky130_fd_sc_hd__nor2_1
X_1078_ clknet_4_8_0_clk _0088_ net33 VGND VGND VPWR VPWR u8.new_op1\[0\] sky130_fd_sc_hd__dfrtp_1
Xhold11 u7.assign_op2 VGND VGND VPWR VPWR net47 sky130_fd_sc_hd__dlygate4sd3_1
Xhold22 u6.reg_sync\[1\] VGND VGND VPWR VPWR net58 sky130_fd_sc_hd__dlygate4sd3_1
Xhold55 u4.op1\[3\] VGND VGND VPWR VPWR net91 sky130_fd_sc_hd__dlygate4sd3_1
Xhold99 u5.reg_val\[1\] VGND VGND VPWR VPWR net135 sky130_fd_sc_hd__dlygate4sd3_1
Xhold88 u4.ssdec\[5\] VGND VGND VPWR VPWR net124 sky130_fd_sc_hd__dlygate4sd3_1
Xhold66 u5.reg1\[2\] VGND VGND VPWR VPWR net102 sky130_fd_sc_hd__dlygate4sd3_1
Xhold44 u5.reg2\[1\] VGND VGND VPWR VPWR net80 sky130_fd_sc_hd__dlygate4sd3_1
Xhold33 u1.state\[0\] VGND VGND VPWR VPWR net69 sky130_fd_sc_hd__dlygate4sd3_1
Xhold77 u5.reg1\[5\] VGND VGND VPWR VPWR net113 sky130_fd_sc_hd__dlygate4sd3_1
XFILLER_0_21_134 VGND VGND VPWR VPWR sky130_fd_sc_hd__decap_6
XFILLER_0_21_167 VGND VGND VPWR VPWR sky130_fd_sc_hd__fill_1
XFILLER_0_21_178 VGND VGND VPWR VPWR sky130_fd_sc_hd__decap_6
XTAP_307 VGND VPWR sky130_fd_sc_hd__tapvpwrvgnd_1
X_1001_ clknet_4_1_0_clk _0030_ net31 VGND VGND VPWR VPWR u1.keycode\[4\] sky130_fd_sc_hd__dfrtp_4
XFILLER_0_29_212 VGND VGND VPWR VPWR sky130_fd_sc_hd__decap_4
X_0647_ u8.buff_opcode\[1\] u8.op2\[5\] VGND VGND VPWR VPWR _0249_ sky130_fd_sc_hd__nand2_1
X_0578_ u1.keycode\[2\] _0175_ _0176_ _0179_ VGND VGND VPWR VPWR _0186_ sky130_fd_sc_hd__o31ai_4
X_0716_ u4.op1\[5\] net105 _0296_ VGND VGND VPWR VPWR _0302_ sky130_fd_sc_hd__mux2_1
XFILLER_0_32_3 VGND VGND VPWR VPWR sky130_fd_sc_hd__fill_2