* NGSPICE file created from Eighty_Twos.ext - technology: sky130A

* Black-box entry subcircuit for sky130_fd_sc_hd__nand2_4 abstract view
.subckt sky130_fd_sc_hd__nand2_4 A B VGND VNB VPB VPWR Y
.ends

* Black-box entry subcircuit for sky130_fd_sc_hd__inv_2 abstract view
.subckt sky130_fd_sc_hd__inv_2 A VGND VNB VPB VPWR Y
.ends

* Black-box entry subcircuit for sky130_fd_sc_hd__tapvpwrvgnd_1 abstract view
.subckt sky130_fd_sc_hd__tapvpwrvgnd_1 VGND VPWR
.ends

* Black-box entry subcircuit for sky130_fd_sc_hd__a21oi_2 abstract view
.subckt sky130_fd_sc_hd__a21oi_2 A1 A2 B1 VGND VNB VPB VPWR Y
.ends

* Black-box entry subcircuit for sky130_fd_sc_hd__fill_2 abstract view
.subckt sky130_fd_sc_hd__fill_2 VGND VNB VPB VPWR
.ends

* Black-box entry subcircuit for sky130_fd_sc_hd__fill_1 abstract view
.subckt sky130_fd_sc_hd__fill_1 VGND VNB VPB VPWR
.ends

* Black-box entry subcircuit for sky130_fd_sc_hd__decap_3 abstract view
.subckt sky130_fd_sc_hd__decap_3 VGND VNB VPB VPWR
.ends

* Black-box entry subcircuit for sky130_ef_sc_hd__decap_12 abstract view
.subckt sky130_ef_sc_hd__decap_12 VGND VNB VPB VPWR
.ends

* Black-box entry subcircuit for sky130_fd_sc_hd__decap_8 abstract view
.subckt sky130_fd_sc_hd__decap_8 VGND VNB VPB VPWR
.ends

* Black-box entry subcircuit for sky130_fd_sc_hd__decap_6 abstract view
.subckt sky130_fd_sc_hd__decap_6 VGND VNB VPB VPWR
.ends

* Black-box entry subcircuit for sky130_fd_sc_hd__decap_4 abstract view
.subckt sky130_fd_sc_hd__decap_4 VGND VNB VPB VPWR
.ends

* Black-box entry subcircuit for sky130_fd_sc_hd__dfrtp_4 abstract view
.subckt sky130_fd_sc_hd__dfrtp_4 CLK D RESET_B VGND VNB VPB VPWR Q
.ends

* Black-box entry subcircuit for sky130_fd_sc_hd__or3_1 abstract view
.subckt sky130_fd_sc_hd__or3_1 A B C VGND VNB VPB VPWR X
.ends

* Black-box entry subcircuit for sky130_fd_sc_hd__xnor2_1 abstract view
.subckt sky130_fd_sc_hd__xnor2_1 A B VGND VNB VPB VPWR Y
.ends

* Black-box entry subcircuit for sky130_fd_sc_hd__a211oi_1 abstract view
.subckt sky130_fd_sc_hd__a211oi_1 A1 A2 B1 C1 VGND VNB VPB VPWR Y
.ends

* Black-box entry subcircuit for sky130_fd_sc_hd__nor2_1 abstract view
.subckt sky130_fd_sc_hd__nor2_1 A B VGND VNB VPB VPWR Y
.ends

* Black-box entry subcircuit for sky130_fd_sc_hd__a22o_1 abstract view
.subckt sky130_fd_sc_hd__a22o_1 A1 A2 B1 B2 VGND VNB VPB VPWR X
.ends

* Black-box entry subcircuit for sky130_fd_sc_hd__clkbuf_1 abstract view
.subckt sky130_fd_sc_hd__clkbuf_1 A VGND VNB VPB VPWR X
.ends

* Black-box entry subcircuit for sky130_fd_sc_hd__o311a_4 abstract view
.subckt sky130_fd_sc_hd__o311a_4 A1 A2 A3 B1 C1 VGND VNB VPB VPWR X
.ends

* Black-box entry subcircuit for sky130_fd_sc_hd__dfrtp_2 abstract view
.subckt sky130_fd_sc_hd__dfrtp_2 CLK D RESET_B VGND VNB VPB VPWR Q
.ends

* Black-box entry subcircuit for sky130_fd_sc_hd__or2_1 abstract view
.subckt sky130_fd_sc_hd__or2_1 A B VGND VNB VPB VPWR X
.ends

* Black-box entry subcircuit for sky130_fd_sc_hd__o211a_1 abstract view
.subckt sky130_fd_sc_hd__o211a_1 A1 A2 B1 C1 VGND VNB VPB VPWR X
.ends

* Black-box entry subcircuit for sky130_fd_sc_hd__and2_1 abstract view
.subckt sky130_fd_sc_hd__and2_1 A B VGND VNB VPB VPWR X
.ends

* Black-box entry subcircuit for sky130_fd_sc_hd__or3_2 abstract view
.subckt sky130_fd_sc_hd__or3_2 A B C VGND VNB VPB VPWR X
.ends

* Black-box entry subcircuit for sky130_fd_sc_hd__a21oi_1 abstract view
.subckt sky130_fd_sc_hd__a21oi_1 A1 A2 B1 VGND VNB VPB VPWR Y
.ends

* Black-box entry subcircuit for sky130_fd_sc_hd__buf_1 abstract view
.subckt sky130_fd_sc_hd__buf_1 A VGND VNB VPB VPWR X
.ends

* Black-box entry subcircuit for sky130_fd_sc_hd__and3_1 abstract view
.subckt sky130_fd_sc_hd__and3_1 A B C VGND VNB VPB VPWR X
.ends

* Black-box entry subcircuit for sky130_fd_sc_hd__mux2_1 abstract view
.subckt sky130_fd_sc_hd__mux2_1 A0 A1 S VGND VNB VPB VPWR X
.ends

* Black-box entry subcircuit for sky130_fd_sc_hd__nor2_2 abstract view
.subckt sky130_fd_sc_hd__nor2_2 A B VGND VNB VPB VPWR Y
.ends

* Black-box entry subcircuit for sky130_fd_sc_hd__a211o_1 abstract view
.subckt sky130_fd_sc_hd__a211o_1 A1 A2 B1 C1 VGND VNB VPB VPWR X
.ends

* Black-box entry subcircuit for sky130_fd_sc_hd__a31o_1 abstract view
.subckt sky130_fd_sc_hd__a31o_1 A1 A2 A3 B1 VGND VNB VPB VPWR X
.ends

* Black-box entry subcircuit for sky130_fd_sc_hd__clkbuf_4 abstract view
.subckt sky130_fd_sc_hd__clkbuf_4 A VGND VNB VPB VPWR X
.ends

* Black-box entry subcircuit for sky130_fd_sc_hd__a221oi_1 abstract view
.subckt sky130_fd_sc_hd__a221oi_1 A1 A2 B1 B2 C1 VGND VNB VPB VPWR Y
.ends

* Black-box entry subcircuit for sky130_fd_sc_hd__o21a_1 abstract view
.subckt sky130_fd_sc_hd__o21a_1 A1 A2 B1 VGND VNB VPB VPWR X
.ends

* Black-box entry subcircuit for sky130_fd_sc_hd__a221o_1 abstract view
.subckt sky130_fd_sc_hd__a221o_1 A1 A2 B1 B2 C1 VGND VNB VPB VPWR X
.ends

* Black-box entry subcircuit for sky130_fd_sc_hd__o211ai_4 abstract view
.subckt sky130_fd_sc_hd__o211ai_4 A1 A2 B1 C1 VGND VNB VPB VPWR Y
.ends

* Black-box entry subcircuit for sky130_fd_sc_hd__a2111o_1 abstract view
.subckt sky130_fd_sc_hd__a2111o_1 A1 A2 B1 C1 D1 VGND VNB VPB VPWR X
.ends

* Black-box entry subcircuit for sky130_fd_sc_hd__buf_4 abstract view
.subckt sky130_fd_sc_hd__buf_4 A VGND VNB VPB VPWR X
.ends

* Black-box entry subcircuit for sky130_fd_sc_hd__a221oi_2 abstract view
.subckt sky130_fd_sc_hd__a221oi_2 A1 A2 B1 B2 C1 VGND VNB VPB VPWR Y
.ends

* Black-box entry subcircuit for sky130_fd_sc_hd__o21ba_1 abstract view
.subckt sky130_fd_sc_hd__o21ba_1 A1 A2 B1_N VGND VNB VPB VPWR X
.ends

* Black-box entry subcircuit for sky130_fd_sc_hd__or3b_1 abstract view
.subckt sky130_fd_sc_hd__or3b_1 A B C_N VGND VNB VPB VPWR X
.ends

* Black-box entry subcircuit for sky130_fd_sc_hd__a21o_1 abstract view
.subckt sky130_fd_sc_hd__a21o_1 A1 A2 B1 VGND VNB VPB VPWR X
.ends

* Black-box entry subcircuit for sky130_fd_sc_hd__o22a_2 abstract view
.subckt sky130_fd_sc_hd__o22a_2 A1 A2 B1 B2 VGND VNB VPB VPWR X
.ends

* Black-box entry subcircuit for sky130_fd_sc_hd__dfrtp_1 abstract view
.subckt sky130_fd_sc_hd__dfrtp_1 CLK D RESET_B VGND VNB VPB VPWR Q
.ends

* Black-box entry subcircuit for sky130_fd_sc_hd__and4_1 abstract view
.subckt sky130_fd_sc_hd__and4_1 A B C D VGND VNB VPB VPWR X
.ends

* Black-box entry subcircuit for sky130_fd_sc_hd__or4_1 abstract view
.subckt sky130_fd_sc_hd__or4_1 A B C D VGND VNB VPB VPWR X
.ends

* Black-box entry subcircuit for sky130_fd_sc_hd__a32o_1 abstract view
.subckt sky130_fd_sc_hd__a32o_1 A1 A2 A3 B1 B2 VGND VNB VPB VPWR X
.ends

* Black-box entry subcircuit for sky130_fd_sc_hd__nor2_8 abstract view
.subckt sky130_fd_sc_hd__nor2_8 A B VGND VNB VPB VPWR Y
.ends

* Black-box entry subcircuit for sky130_fd_sc_hd__buf_8 abstract view
.subckt sky130_fd_sc_hd__buf_8 A VGND VNB VPB VPWR X
.ends

* Black-box entry subcircuit for sky130_fd_sc_hd__o21ai_1 abstract view
.subckt sky130_fd_sc_hd__o21ai_1 A1 A2 B1 VGND VNB VPB VPWR Y
.ends

* Black-box entry subcircuit for sky130_fd_sc_hd__o221ai_4 abstract view
.subckt sky130_fd_sc_hd__o221ai_4 A1 A2 B1 B2 C1 VGND VNB VPB VPWR Y
.ends

* Black-box entry subcircuit for sky130_fd_sc_hd__dlygate4sd3_1 abstract view
.subckt sky130_fd_sc_hd__dlygate4sd3_1 A VGND VNB VPB VPWR X
.ends

* Black-box entry subcircuit for sky130_fd_sc_hd__a22o_2 abstract view
.subckt sky130_fd_sc_hd__a22o_2 A1 A2 B1 B2 VGND VNB VPB VPWR X
.ends

* Black-box entry subcircuit for sky130_fd_sc_hd__nand2_1 abstract view
.subckt sky130_fd_sc_hd__nand2_1 A B VGND VNB VPB VPWR Y
.ends

* Black-box entry subcircuit for sky130_fd_sc_hd__or2b_1 abstract view
.subckt sky130_fd_sc_hd__or2b_1 A B_N VGND VNB VPB VPWR X
.ends

* Black-box entry subcircuit for sky130_fd_sc_hd__and2_2 abstract view
.subckt sky130_fd_sc_hd__and2_2 A B VGND VNB VPB VPWR X
.ends

* Black-box entry subcircuit for sky130_fd_sc_hd__o211a_2 abstract view
.subckt sky130_fd_sc_hd__o211a_2 A1 A2 B1 C1 VGND VNB VPB VPWR X
.ends

* Black-box entry subcircuit for sky130_fd_sc_hd__o221a_1 abstract view
.subckt sky130_fd_sc_hd__o221a_1 A1 A2 B1 B2 C1 VGND VNB VPB VPWR X
.ends

* Black-box entry subcircuit for sky130_fd_sc_hd__a221o_2 abstract view
.subckt sky130_fd_sc_hd__a221o_2 A1 A2 B1 B2 C1 VGND VNB VPB VPWR X
.ends

* Black-box entry subcircuit for sky130_fd_sc_hd__xnor2_2 abstract view
.subckt sky130_fd_sc_hd__xnor2_2 A B VGND VNB VPB VPWR Y
.ends

* Black-box entry subcircuit for sky130_fd_sc_hd__buf_2 abstract view
.subckt sky130_fd_sc_hd__buf_2 A VGND VNB VPB VPWR X
.ends

* Black-box entry subcircuit for sky130_fd_sc_hd__o31a_1 abstract view
.subckt sky130_fd_sc_hd__o31a_1 A1 A2 A3 B1 VGND VNB VPB VPWR X
.ends

* Black-box entry subcircuit for sky130_fd_sc_hd__a2111oi_1 abstract view
.subckt sky130_fd_sc_hd__a2111oi_1 A1 A2 B1 C1 D1 VGND VNB VPB VPWR Y
.ends

* Black-box entry subcircuit for sky130_fd_sc_hd__o21ai_4 abstract view
.subckt sky130_fd_sc_hd__o21ai_4 A1 A2 B1 VGND VNB VPB VPWR Y
.ends

* Black-box entry subcircuit for sky130_fd_sc_hd__or4bb_1 abstract view
.subckt sky130_fd_sc_hd__or4bb_1 A B C_N D_N VGND VNB VPB VPWR X
.ends

* Black-box entry subcircuit for sky130_fd_sc_hd__nand2_2 abstract view
.subckt sky130_fd_sc_hd__nand2_2 A B VGND VNB VPB VPWR Y
.ends

* Black-box entry subcircuit for sky130_fd_sc_hd__o32a_1 abstract view
.subckt sky130_fd_sc_hd__o32a_1 A1 A2 A3 B1 B2 VGND VNB VPB VPWR X
.ends

* Black-box entry subcircuit for sky130_fd_sc_hd__and3_4 abstract view
.subckt sky130_fd_sc_hd__and3_4 A B C VGND VNB VPB VPWR X
.ends

* Black-box entry subcircuit for sky130_fd_sc_hd__and4bb_4 abstract view
.subckt sky130_fd_sc_hd__and4bb_4 A_N B_N C D VGND VNB VPB VPWR X
.ends

* Black-box entry subcircuit for sky130_fd_sc_hd__o211a_4 abstract view
.subckt sky130_fd_sc_hd__o211a_4 A1 A2 B1 C1 VGND VNB VPB VPWR X
.ends

* Black-box entry subcircuit for sky130_fd_sc_hd__and4b_1 abstract view
.subckt sky130_fd_sc_hd__and4b_1 A_N B C D VGND VNB VPB VPWR X
.ends

* Black-box entry subcircuit for sky130_fd_sc_hd__and2b_1 abstract view
.subckt sky130_fd_sc_hd__and2b_1 A_N B VGND VNB VPB VPWR X
.ends

* Black-box entry subcircuit for sky130_fd_sc_hd__and3_2 abstract view
.subckt sky130_fd_sc_hd__and3_2 A B C VGND VNB VPB VPWR X
.ends

* Black-box entry subcircuit for sky130_fd_sc_hd__nand3_1 abstract view
.subckt sky130_fd_sc_hd__nand3_1 A B C VGND VNB VPB VPWR Y
.ends

* Black-box entry subcircuit for sky130_fd_sc_hd__o21ai_2 abstract view
.subckt sky130_fd_sc_hd__o21ai_2 A1 A2 B1 VGND VNB VPB VPWR Y
.ends

* Black-box entry subcircuit for sky130_fd_sc_hd__o21a_2 abstract view
.subckt sky130_fd_sc_hd__o21a_2 A1 A2 B1 VGND VNB VPB VPWR X
.ends

* Black-box entry subcircuit for sky130_fd_sc_hd__clkbuf_16 abstract view
.subckt sky130_fd_sc_hd__clkbuf_16 A VGND VNB VPB VPWR X
.ends

* Black-box entry subcircuit for sky130_fd_sc_hd__a21oi_4 abstract view
.subckt sky130_fd_sc_hd__a21oi_4 A1 A2 B1 VGND VNB VPB VPWR Y
.ends

* Black-box entry subcircuit for sky130_fd_sc_hd__clkbuf_2 abstract view
.subckt sky130_fd_sc_hd__clkbuf_2 A VGND VNB VPB VPWR X
.ends

* Black-box entry subcircuit for sky130_fd_sc_hd__and3b_1 abstract view
.subckt sky130_fd_sc_hd__and3b_1 A_N B C VGND VNB VPB VPWR X
.ends

* Black-box entry subcircuit for sky130_fd_sc_hd__buf_6 abstract view
.subckt sky130_fd_sc_hd__buf_6 A VGND VNB VPB VPWR X
.ends

* Black-box entry subcircuit for sky130_fd_sc_hd__a21o_4 abstract view
.subckt sky130_fd_sc_hd__a21o_4 A1 A2 B1 VGND VNB VPB VPWR X
.ends

* Black-box entry subcircuit for sky130_fd_sc_hd__o22a_1 abstract view
.subckt sky130_fd_sc_hd__o22a_1 A1 A2 B1 B2 VGND VNB VPB VPWR X
.ends

* Black-box entry subcircuit for sky130_fd_sc_hd__o31ai_2 abstract view
.subckt sky130_fd_sc_hd__o31ai_2 A1 A2 A3 B1 VGND VNB VPB VPWR Y
.ends

* Black-box entry subcircuit for sky130_fd_sc_hd__clkbuf_8 abstract view
.subckt sky130_fd_sc_hd__clkbuf_8 A VGND VNB VPB VPWR X
.ends

* Black-box entry subcircuit for sky130_fd_sc_hd__o2111ai_4 abstract view
.subckt sky130_fd_sc_hd__o2111ai_4 A1 A2 B1 C1 D1 VGND VNB VPB VPWR Y
.ends

* Black-box entry subcircuit for sky130_fd_sc_hd__a22o_4 abstract view
.subckt sky130_fd_sc_hd__a22o_4 A1 A2 B1 B2 VGND VNB VPB VPWR X
.ends

* Black-box entry subcircuit for sky130_fd_sc_hd__a21bo_1 abstract view
.subckt sky130_fd_sc_hd__a21bo_1 A1 A2 B1_N VGND VNB VPB VPWR X
.ends

* Black-box entry subcircuit for sky130_fd_sc_hd__o311a_1 abstract view
.subckt sky130_fd_sc_hd__o311a_1 A1 A2 A3 B1 C1 VGND VNB VPB VPWR X
.ends

* Black-box entry subcircuit for sky130_fd_sc_hd__o2bb2a_1 abstract view
.subckt sky130_fd_sc_hd__o2bb2a_1 A1_N A2_N B1 B2 VGND VNB VPB VPWR X
.ends

* Black-box entry subcircuit for sky130_fd_sc_hd__xor2_1 abstract view
.subckt sky130_fd_sc_hd__xor2_1 A B VGND VNB VPB VPWR X
.ends

* Black-box entry subcircuit for sky130_fd_sc_hd__or3_4 abstract view
.subckt sky130_fd_sc_hd__or3_4 A B C VGND VNB VPB VPWR X
.ends

* Black-box entry subcircuit for sky130_fd_sc_hd__nand2_8 abstract view
.subckt sky130_fd_sc_hd__nand2_8 A B VGND VNB VPB VPWR Y
.ends

* Black-box entry subcircuit for sky130_fd_sc_hd__or3b_2 abstract view
.subckt sky130_fd_sc_hd__or3b_2 A B C_N VGND VNB VPB VPWR X
.ends

* Black-box entry subcircuit for sky130_fd_sc_hd__a211o_2 abstract view
.subckt sky130_fd_sc_hd__a211o_2 A1 A2 B1 C1 VGND VNB VPB VPWR X
.ends

* Black-box entry subcircuit for sky130_fd_sc_hd__a22oi_1 abstract view
.subckt sky130_fd_sc_hd__a22oi_1 A1 A2 B1 B2 VGND VNB VPB VPWR Y
.ends

* Black-box entry subcircuit for sky130_fd_sc_hd__nand3b_1 abstract view
.subckt sky130_fd_sc_hd__nand3b_1 A_N B C VGND VNB VPB VPWR Y
.ends

* Black-box entry subcircuit for sky130_fd_sc_hd__a31oi_4 abstract view
.subckt sky130_fd_sc_hd__a31oi_4 A1 A2 A3 B1 VGND VNB VPB VPWR Y
.ends

* Black-box entry subcircuit for sky130_fd_sc_hd__xnor2_4 abstract view
.subckt sky130_fd_sc_hd__xnor2_4 A B VGND VNB VPB VPWR Y
.ends

* Black-box entry subcircuit for sky130_fd_sc_hd__nor2_4 abstract view
.subckt sky130_fd_sc_hd__nor2_4 A B VGND VNB VPB VPWR Y
.ends

* Black-box entry subcircuit for sky130_fd_sc_hd__o2111a_1 abstract view
.subckt sky130_fd_sc_hd__o2111a_1 A1 A2 B1 C1 D1 VGND VNB VPB VPWR X
.ends

* Black-box entry subcircuit for sky130_fd_sc_hd__a21o_2 abstract view
.subckt sky130_fd_sc_hd__a21o_2 A1 A2 B1 VGND VNB VPB VPWR X
.ends

* Black-box entry subcircuit for sky130_fd_sc_hd__a32o_2 abstract view
.subckt sky130_fd_sc_hd__a32o_2 A1 A2 A3 B1 B2 VGND VNB VPB VPWR X
.ends

* Black-box entry subcircuit for sky130_fd_sc_hd__and3b_2 abstract view
.subckt sky130_fd_sc_hd__and3b_2 A_N B C VGND VNB VPB VPWR X
.ends

* Black-box entry subcircuit for sky130_fd_sc_hd__dlymetal6s2s_1 abstract view
.subckt sky130_fd_sc_hd__dlymetal6s2s_1 A VGND VNB VPB VPWR X
.ends

* Black-box entry subcircuit for sky130_fd_sc_hd__a31o_2 abstract view
.subckt sky130_fd_sc_hd__a31o_2 A1 A2 A3 B1 VGND VNB VPB VPWR X
.ends

* Black-box entry subcircuit for sky130_fd_sc_hd__a2bb2o_1 abstract view
.subckt sky130_fd_sc_hd__a2bb2o_1 A1_N A2_N B1 B2 VGND VNB VPB VPWR X
.ends

* Black-box entry subcircuit for sky130_fd_sc_hd__and3b_4 abstract view
.subckt sky130_fd_sc_hd__and3b_4 A_N B C VGND VNB VPB VPWR X
.ends

* Black-box entry subcircuit for sky130_fd_sc_hd__o21bai_1 abstract view
.subckt sky130_fd_sc_hd__o21bai_1 A1 A2 B1_N VGND VNB VPB VPWR Y
.ends

* Black-box entry subcircuit for sky130_fd_sc_hd__and4bb_1 abstract view
.subckt sky130_fd_sc_hd__and4bb_1 A_N B_N C D VGND VNB VPB VPWR X
.ends

* Black-box entry subcircuit for sky130_fd_sc_hd__o211ai_1 abstract view
.subckt sky130_fd_sc_hd__o211ai_1 A1 A2 B1 C1 VGND VNB VPB VPWR Y
.ends

* Black-box entry subcircuit for sky130_fd_sc_hd__or2_2 abstract view
.subckt sky130_fd_sc_hd__or2_2 A B VGND VNB VPB VPWR X
.ends

* Black-box entry subcircuit for sky130_fd_sc_hd__o41a_1 abstract view
.subckt sky130_fd_sc_hd__o41a_1 A1 A2 A3 A4 B1 VGND VNB VPB VPWR X
.ends

* Black-box entry subcircuit for sky130_fd_sc_hd__o21bai_4 abstract view
.subckt sky130_fd_sc_hd__o21bai_4 A1 A2 B1_N VGND VNB VPB VPWR Y
.ends

* Black-box entry subcircuit for sky130_fd_sc_hd__or3b_4 abstract view
.subckt sky130_fd_sc_hd__or3b_4 A B C_N VGND VNB VPB VPWR X
.ends

* Black-box entry subcircuit for sky130_fd_sc_hd__o32a_4 abstract view
.subckt sky130_fd_sc_hd__o32a_4 A1 A2 A3 B1 B2 VGND VNB VPB VPWR X
.ends

* Black-box entry subcircuit for sky130_fd_sc_hd__or4b_1 abstract view
.subckt sky130_fd_sc_hd__or4b_1 A B C D_N VGND VNB VPB VPWR X
.ends

* Black-box entry subcircuit for sky130_fd_sc_hd__nor3_1 abstract view
.subckt sky130_fd_sc_hd__nor3_1 A B C VGND VNB VPB VPWR Y
.ends

* Black-box entry subcircuit for sky130_fd_sc_hd__a21boi_1 abstract view
.subckt sky130_fd_sc_hd__a21boi_1 A1 A2 B1_N VGND VNB VPB VPWR Y
.ends

* Black-box entry subcircuit for sky130_fd_sc_hd__o31a_2 abstract view
.subckt sky130_fd_sc_hd__o31a_2 A1 A2 A3 B1 VGND VNB VPB VPWR X
.ends

* Black-box entry subcircuit for sky130_fd_sc_hd__o21ba_2 abstract view
.subckt sky130_fd_sc_hd__o21ba_2 A1 A2 B1_N VGND VNB VPB VPWR X
.ends

* Black-box entry subcircuit for sky130_fd_sc_hd__a41o_1 abstract view
.subckt sky130_fd_sc_hd__a41o_1 A1 A2 A3 A4 B1 VGND VNB VPB VPWR X
.ends

* Black-box entry subcircuit for sky130_fd_sc_hd__and4_4 abstract view
.subckt sky130_fd_sc_hd__and4_4 A B C D VGND VNB VPB VPWR X
.ends

* Black-box entry subcircuit for sky130_fd_sc_hd__o2bb2a_2 abstract view
.subckt sky130_fd_sc_hd__o2bb2a_2 A1_N A2_N B1 B2 VGND VNB VPB VPWR X
.ends

* Black-box entry subcircuit for sky130_fd_sc_hd__nor3_2 abstract view
.subckt sky130_fd_sc_hd__nor3_2 A B C VGND VNB VPB VPWR Y
.ends

* Black-box entry subcircuit for sky130_fd_sc_hd__o22ai_4 abstract view
.subckt sky130_fd_sc_hd__o22ai_4 A1 A2 B1 B2 VGND VNB VPB VPWR Y
.ends

* Black-box entry subcircuit for sky130_fd_sc_hd__a211oi_2 abstract view
.subckt sky130_fd_sc_hd__a211oi_2 A1 A2 B1 C1 VGND VNB VPB VPWR Y
.ends

* Black-box entry subcircuit for sky130_fd_sc_hd__dfstp_1 abstract view
.subckt sky130_fd_sc_hd__dfstp_1 CLK D SET_B VGND VNB VPB VPWR Q
.ends

* Black-box entry subcircuit for sky130_fd_sc_hd__a2bb2o_4 abstract view
.subckt sky130_fd_sc_hd__a2bb2o_4 A1_N A2_N B1 B2 VGND VNB VPB VPWR X
.ends

* Black-box entry subcircuit for sky130_fd_sc_hd__a21bo_2 abstract view
.subckt sky130_fd_sc_hd__a21bo_2 A1 A2 B1_N VGND VNB VPB VPWR X
.ends

* Black-box entry subcircuit for sky130_fd_sc_hd__o32a_2 abstract view
.subckt sky130_fd_sc_hd__o32a_2 A1 A2 A3 B1 B2 VGND VNB VPB VPWR X
.ends

* Black-box entry subcircuit for sky130_fd_sc_hd__o22ai_1 abstract view
.subckt sky130_fd_sc_hd__o22ai_1 A1 A2 B1 B2 VGND VNB VPB VPWR Y
.ends

* Black-box entry subcircuit for sky130_fd_sc_hd__a311o_1 abstract view
.subckt sky130_fd_sc_hd__a311o_1 A1 A2 A3 B1 C1 VGND VNB VPB VPWR X
.ends

* Black-box entry subcircuit for sky130_fd_sc_hd__nand3b_2 abstract view
.subckt sky130_fd_sc_hd__nand3b_2 A_N B C VGND VNB VPB VPWR Y
.ends

* Black-box entry subcircuit for sky130_fd_sc_hd__xor2_4 abstract view
.subckt sky130_fd_sc_hd__xor2_4 A B VGND VNB VPB VPWR X
.ends

* Black-box entry subcircuit for sky130_fd_sc_hd__clkinv_4 abstract view
.subckt sky130_fd_sc_hd__clkinv_4 A VGND VNB VPB VPWR Y
.ends

* Black-box entry subcircuit for sky130_fd_sc_hd__nor4_1 abstract view
.subckt sky130_fd_sc_hd__nor4_1 A B C D VGND VNB VPB VPWR Y
.ends

* Black-box entry subcircuit for sky130_fd_sc_hd__o22a_4 abstract view
.subckt sky130_fd_sc_hd__o22a_4 A1 A2 B1 B2 VGND VNB VPB VPWR X
.ends

* Black-box entry subcircuit for sky130_fd_sc_hd__nand4_2 abstract view
.subckt sky130_fd_sc_hd__nand4_2 A B C D VGND VNB VPB VPWR Y
.ends

* Black-box entry subcircuit for sky130_fd_sc_hd__nand2b_1 abstract view
.subckt sky130_fd_sc_hd__nand2b_1 A_N B VGND VNB VPB VPWR Y
.ends

* Black-box entry subcircuit for sky130_fd_sc_hd__nand2b_4 abstract view
.subckt sky130_fd_sc_hd__nand2b_4 A_N B VGND VNB VPB VPWR Y
.ends

* Black-box entry subcircuit for sky130_fd_sc_hd__a21boi_2 abstract view
.subckt sky130_fd_sc_hd__a21boi_2 A1 A2 B1_N VGND VNB VPB VPWR Y
.ends

* Black-box entry subcircuit for sky130_fd_sc_hd__and4_2 abstract view
.subckt sky130_fd_sc_hd__and4_2 A B C D VGND VNB VPB VPWR X
.ends

* Black-box entry subcircuit for sky130_fd_sc_hd__o221ai_1 abstract view
.subckt sky130_fd_sc_hd__o221ai_1 A1 A2 B1 B2 C1 VGND VNB VPB VPWR Y
.ends

* Black-box entry subcircuit for sky130_fd_sc_hd__a32o_4 abstract view
.subckt sky130_fd_sc_hd__a32o_4 A1 A2 A3 B1 B2 VGND VNB VPB VPWR X
.ends

.subckt Eighty_Twos VGND VPWR clk cs gpi[0] gpi[10] gpi[11] gpi[12] gpi[13] gpi[14]
+ gpi[15] gpi[16] gpi[17] gpi[18] gpi[19] gpi[1] gpi[20] gpi[21] gpi[22] gpi[23] gpi[24]
+ gpi[25] gpi[26] gpi[27] gpi[28] gpi[29] gpi[2] gpi[30] gpi[31] gpi[32] gpi[33] gpi[3]
+ gpi[4] gpi[5] gpi[6] gpi[7] gpi[8] gpi[9] gpo[0] gpo[10] gpo[11] gpo[12] gpo[13]
+ gpo[14] gpo[15] gpo[16] gpo[17] gpo[18] gpo[19] gpo[1] gpo[20] gpo[21] gpo[22] gpo[23]
+ gpo[24] gpo[25] gpo[26] gpo[27] gpo[28] gpo[29] gpo[2] gpo[30] gpo[31] gpo[32] gpo[33]
+ gpo[3] gpo[4] gpo[5] gpo[6] gpo[7] gpo[8] gpo[9] nrst
X_2037_ ByteBuffer.instr\[19\] _0260_ VGND VGND VPWR VPWR _0261_ sky130_fd_sc_hd__nand2_4
X_2409__9 clknet_1_1__leaf__0515_ VGND VGND VPWR VPWR net73 sky130_fd_sc_hd__inv_2
XTAP_177 VGND VPWR sky130_fd_sc_hd__tapvpwrvgnd_1
XTAP_188 VGND VPWR sky130_fd_sc_hd__tapvpwrvgnd_1
XTAP_199 VGND VPWR sky130_fd_sc_hd__tapvpwrvgnd_1
X_2106_ _0630_ _0285_ _1202_ VGND VGND VPWR VPWR _0306_ sky130_fd_sc_hd__a21oi_2
XFILLER_0_64_306 VGND VGND VPWR VPWR sky130_fd_sc_hd__fill_2
XFILLER_0_57_391 VGND VGND VPWR VPWR sky130_fd_sc_hd__fill_1
XFILLER_0_4_193 VGND VGND VPWR VPWR sky130_fd_sc_hd__decap_3
XFILLER_0_7_81 VGND VGND VPWR VPWR sky130_fd_sc_hd__fill_2
XFILLER_0_67_177 VGND VGND VPWR VPWR sky130_fd_sc_hd__fill_2
XFILLER_0_67_100 VGND VGND VPWR VPWR sky130_ef_sc_hd__decap_12
XFILLER_0_48_391 VGND VGND VPWR VPWR sky130_fd_sc_hd__decap_8
XFILLER_0_23_269 VGND VGND VPWR VPWR sky130_fd_sc_hd__fill_1
XFILLER_0_3_39 VGND VGND VPWR VPWR sky130_ef_sc_hd__decap_12
XFILLER_0_58_133 VGND VGND VPWR VPWR sky130_fd_sc_hd__decap_6
XFILLER_0_13_51 VGND VGND VPWR VPWR sky130_fd_sc_hd__decap_4
X_2655_ net109 _0131_ net58 VGND VGND VPWR VPWR RegFile.D\[5\] sky130_fd_sc_hd__dfrtp_4
XFILLER_0_14_225 VGND VGND VPWR VPWR sky130_fd_sc_hd__decap_3
X_1606_ RegFile.A\[7\] _0792_ _0704_ VGND VGND VPWR VPWR _0948_ sky130_fd_sc_hd__or3_1
X_2586_ PC.i_mem_addr\[15\] _0611_ VGND VGND VPWR VPWR _0615_ sky130_fd_sc_hd__xnor2_1
X_1537_ ALU.flags_to_alu\[1\] _0711_ _0878_ _0654_ VGND VGND VPWR VPWR _0879_ sky130_fd_sc_hd__a211oi_1
X_1399_ RegFile.A\[1\] _0704_ VGND VGND VPWR VPWR _0741_ sky130_fd_sc_hd__nor2_1
X_1468_ ALU.flags_to_alu\[2\] _0765_ _0763_ RegFile.H\[2\] VGND VGND VPWR VPWR _0810_
+ sky130_fd_sc_hd__a22o_1
XFILLER_0_52_309 VGND VGND VPWR VPWR sky130_ef_sc_hd__decap_12
XFILLER_0_49_177 VGND VGND VPWR VPWR sky130_fd_sc_hd__decap_3
XFILLER_0_45_350 VGND VGND VPWR VPWR sky130_fd_sc_hd__decap_4
XFILLER_0_60_397 VGND VGND VPWR VPWR sky130_fd_sc_hd__decap_4
XFILLER_0_18_29 VGND VGND VPWR VPWR sky130_fd_sc_hd__decap_4
XFILLER_0_55_103 VGND VGND VPWR VPWR sky130_fd_sc_hd__decap_8
XFILLER_0_50_27 VGND VGND VPWR VPWR sky130_fd_sc_hd__fill_1
XFILLER_0_55_169 VGND VGND VPWR VPWR sky130_ef_sc_hd__decap_12
XFILLER_0_59_69 VGND VGND VPWR VPWR sky130_ef_sc_hd__decap_12
X_2371_ _0495_ VGND VGND VPWR VPWR _0077_ sky130_fd_sc_hd__clkbuf_1
X_1322_ _0626_ _0657_ _0635_ _0659_ _0663_ VGND VGND VPWR VPWR _0664_ sky130_fd_sc_hd__o311a_4
XFILLER_0_34_309 VGND VGND VPWR VPWR sky130_fd_sc_hd__decap_6
XFILLER_0_27_383 VGND VGND VPWR VPWR sky130_fd_sc_hd__decap_8
XFILLER_0_24_83 VGND VGND VPWR VPWR sky130_fd_sc_hd__fill_1
X_2569_ _0601_ VGND VGND VPWR VPWR _0169_ sky130_fd_sc_hd__clkbuf_1
X_2638_ net92 _0114_ net58 VGND VGND VPWR VPWR RegFile.H\[4\] sky130_fd_sc_hd__dfrtp_2
XFILLER_0_6_288 VGND VGND VPWR VPWR sky130_ef_sc_hd__decap_12
XFILLER_0_37_147 VGND VGND VPWR VPWR sky130_fd_sc_hd__decap_8
XFILLER_0_60_150 VGND VGND VPWR VPWR sky130_fd_sc_hd__decap_4
XFILLER_0_52_139 VGND VGND VPWR VPWR sky130_fd_sc_hd__fill_1
XFILLER_0_52_117 VGND VGND VPWR VPWR sky130_fd_sc_hd__decap_6
XFILLER_0_61_15 VGND VGND VPWR VPWR sky130_ef_sc_hd__decap_12
XFILLER_0_0_29 VGND VGND VPWR VPWR sky130_fd_sc_hd__fill_2
X_1871_ _1156_ _1211_ VGND VGND VPWR VPWR _1212_ sky130_fd_sc_hd__or2_1
X_1940_ _0922_ _1253_ _0175_ _1093_ VGND VGND VPWR VPWR _0176_ sky130_fd_sc_hd__o211a_1
XFILLER_0_28_147 VGND VGND VPWR VPWR sky130_fd_sc_hd__fill_1
XFILLER_0_9_27 VGND VGND VPWR VPWR sky130_ef_sc_hd__decap_12
XFILLER_0_51_161 VGND VGND VPWR VPWR sky130_fd_sc_hd__decap_6
XFILLER_0_36_191 VGND VGND VPWR VPWR sky130_fd_sc_hd__decap_4
XFILLER_0_3_214 VGND VGND VPWR VPWR sky130_fd_sc_hd__decap_8
XFILLER_0_10_85 VGND VGND VPWR VPWR sky130_fd_sc_hd__decap_3
X_2354_ _0486_ VGND VGND VPWR VPWR _0069_ sky130_fd_sc_hd__clkbuf_1
X_1305_ _0624_ VGND VGND VPWR VPWR _0647_ sky130_fd_sc_hd__inv_2
X_2285_ _0448_ VGND VGND VPWR VPWR net37 sky130_fd_sc_hd__clkbuf_1
XFILLER_0_59_261 VGND VGND VPWR VPWR sky130_ef_sc_hd__decap_12
XFILLER_0_35_60 VGND VGND VPWR VPWR sky130_ef_sc_hd__decap_12
XFILLER_0_34_106 VGND VGND VPWR VPWR sky130_fd_sc_hd__fill_1
XFILLER_0_19_169 VGND VGND VPWR VPWR sky130_ef_sc_hd__decap_12
XFILLER_0_30_389 VGND VGND VPWR VPWR sky130_fd_sc_hd__decap_4
XFILLER_0_65_242 VGND VGND VPWR VPWR sky130_fd_sc_hd__decap_8
XFILLER_0_25_139 VGND VGND VPWR VPWR sky130_fd_sc_hd__decap_3
X_2445__44 clknet_1_0__leaf__0516_ VGND VGND VPWR VPWR net108 sky130_fd_sc_hd__inv_2
X_2460__58 clknet_1_0__leaf__0517_ VGND VGND VPWR VPWR net122 sky130_fd_sc_hd__inv_2
XTAP_507 VGND VPWR sky130_fd_sc_hd__tapvpwrvgnd_1
XFILLER_0_33_161 VGND VGND VPWR VPWR sky130_fd_sc_hd__decap_6
XFILLER_0_56_48 VGND VGND VPWR VPWR sky130_fd_sc_hd__decap_3
XFILLER_0_56_15 VGND VGND VPWR VPWR sky130_ef_sc_hd__decap_12
XTAP_529 VGND VPWR sky130_fd_sc_hd__tapvpwrvgnd_1
XTAP_518 VGND VPWR sky130_fd_sc_hd__tapvpwrvgnd_1
X_2070_ _0655_ _0285_ VGND VGND VPWR VPWR _0286_ sky130_fd_sc_hd__and2_1
XFILLER_0_56_286 VGND VGND VPWR VPWR sky130_fd_sc_hd__fill_1
XFILLER_0_56_253 VGND VGND VPWR VPWR sky130_ef_sc_hd__decap_12
X_1785_ _0937_ _1056_ _1063_ VGND VGND VPWR VPWR _1127_ sky130_fd_sc_hd__or3_2
X_1923_ _0937_ _1210_ _1259_ _1261_ VGND VGND VPWR VPWR _1262_ sky130_fd_sc_hd__o211a_1
X_1854_ _1194_ _1195_ _0626_ VGND VGND VPWR VPWR _1196_ sky130_fd_sc_hd__a21oi_1
XFILLER_0_31_109 VGND VGND VPWR VPWR sky130_fd_sc_hd__decap_3
X_2406_ clknet_2_0__leaf_clk VGND VGND VPWR VPWR _0514_ sky130_fd_sc_hd__buf_1
XFILLER_0_12_389 VGND VGND VPWR VPWR sky130_ef_sc_hd__decap_12
X_2199_ _0376_ _0374_ _0375_ VGND VGND VPWR VPWR _0378_ sky130_fd_sc_hd__and3_1
XFILLER_0_46_81 VGND VGND VPWR VPWR sky130_fd_sc_hd__decap_3
X_2268_ _0260_ VGND VGND VPWR VPWR _0439_ sky130_fd_sc_hd__inv_2
X_2337_ _0732_ _0476_ VGND VGND VPWR VPWR _0479_ sky130_fd_sc_hd__and2_1
XFILLER_0_47_264 VGND VGND VPWR VPWR sky130_fd_sc_hd__fill_1
XFILLER_0_1_61 VGND VGND VPWR VPWR sky130_fd_sc_hd__fill_1
XFILLER_0_7_361 VGND VGND VPWR VPWR sky130_ef_sc_hd__decap_12
XFILLER_0_30_197 VGND VGND VPWR VPWR sky130_fd_sc_hd__fill_2
XFILLER_0_26_29 VGND VGND VPWR VPWR sky130_fd_sc_hd__decap_4
XFILLER_0_53_267 VGND VGND VPWR VPWR sky130_ef_sc_hd__decap_12
XFILLER_0_38_253 VGND VGND VPWR VPWR sky130_fd_sc_hd__decap_4
XFILLER_0_67_69 VGND VGND VPWR VPWR sky130_ef_sc_hd__decap_12
X_1570_ _0882_ _0910_ _0911_ VGND VGND VPWR VPWR _0912_ sky130_fd_sc_hd__a21oi_2
XTAP_348 VGND VPWR sky130_fd_sc_hd__tapvpwrvgnd_1
XTAP_337 VGND VPWR sky130_fd_sc_hd__tapvpwrvgnd_1
XTAP_326 VGND VPWR sky130_fd_sc_hd__tapvpwrvgnd_1
XTAP_315 VGND VPWR sky130_fd_sc_hd__tapvpwrvgnd_1
XFILLER_0_21_186 VGND VGND VPWR VPWR sky130_fd_sc_hd__decap_6
XTAP_304 VGND VPWR sky130_fd_sc_hd__tapvpwrvgnd_1
XTAP_359 VGND VPWR sky130_fd_sc_hd__tapvpwrvgnd_1
X_2122_ _0248_ RegFile.H\[0\] _0307_ VGND VGND VPWR VPWR _0315_ sky130_fd_sc_hd__mux2_1
X_2053_ _0274_ VGND VGND VPWR VPWR _0139_ sky130_fd_sc_hd__clkbuf_1
XFILLER_0_32_50 VGND VGND VPWR VPWR sky130_fd_sc_hd__decap_4
X_1906_ _1244_ _1245_ VGND VGND VPWR VPWR _1246_ sky130_fd_sc_hd__nor2_2
X_1837_ _0960_ _1162_ _1170_ _1178_ VGND VGND VPWR VPWR _1179_ sky130_fd_sc_hd__a211o_1
X_1768_ _0908_ _0885_ _0896_ _1109_ VGND VGND VPWR VPWR _1110_ sky130_fd_sc_hd__a31o_1
X_1699_ _0622_ _0624_ _0621_ _1040_ VGND VGND VPWR VPWR _1041_ sky130_fd_sc_hd__o211a_1
XFILLER_0_12_197 VGND VGND VPWR VPWR sky130_fd_sc_hd__decap_4
XFILLER_0_35_245 VGND VGND VPWR VPWR sky130_fd_sc_hd__decap_4
X_2471__5 clknet_1_0__leaf__0514_ VGND VGND VPWR VPWR net69 sky130_fd_sc_hd__inv_2
Xoutput42 net42 VGND VGND VPWR VPWR gpo[6] sky130_fd_sc_hd__clkbuf_4
Xoutput20 net20 VGND VGND VPWR VPWR gpo[17] sky130_fd_sc_hd__clkbuf_4
Xoutput31 net31 VGND VGND VPWR VPWR gpo[27] sky130_fd_sc_hd__clkbuf_4
XFILLER_0_37_39 VGND VGND VPWR VPWR sky130_ef_sc_hd__decap_12
XFILLER_0_1_301 VGND VGND VPWR VPWR sky130_ef_sc_hd__decap_12
X_2671_ net125 _0147_ net59 VGND VGND VPWR VPWR RegFile.B\[5\] sky130_fd_sc_hd__dfrtp_4
X_1622_ RegFile.L\[6\] _0770_ _0763_ RegFile.H\[6\] net143 VGND VGND VPWR VPWR _0964_
+ sky130_fd_sc_hd__a221oi_1
X_1553_ _0893_ _0894_ _0693_ VGND VGND VPWR VPWR _0895_ sky130_fd_sc_hd__o21a_1
XTAP_178 VGND VPWR sky130_fd_sc_hd__tapvpwrvgnd_1
XTAP_167 VGND VPWR sky130_fd_sc_hd__tapvpwrvgnd_1
XTAP_156 VGND VPWR sky130_fd_sc_hd__tapvpwrvgnd_1
XTAP_145 VGND VPWR sky130_fd_sc_hd__tapvpwrvgnd_1
XTAP_189 VGND VPWR sky130_fd_sc_hd__tapvpwrvgnd_1
X_1484_ RegFile.C\[2\] _0705_ _0707_ RegFile.L\[2\] _0825_ VGND VGND VPWR VPWR _0826_
+ sky130_fd_sc_hd__a221o_1
XFILLER_0_49_326 VGND VGND VPWR VPWR sky130_fd_sc_hd__fill_2
X_2036_ _0621_ _0628_ VGND VGND VPWR VPWR _0260_ sky130_fd_sc_hd__nor2_2
X_2105_ _0305_ VGND VGND VPWR VPWR _0118_ sky130_fd_sc_hd__clkbuf_1
XFILLER_0_17_223 VGND VGND VPWR VPWR sky130_fd_sc_hd__fill_1
XFILLER_0_40_281 VGND VGND VPWR VPWR sky130_fd_sc_hd__fill_1
XFILLER_0_67_167 VGND VGND VPWR VPWR sky130_fd_sc_hd__fill_1
XFILLER_0_64_15 VGND VGND VPWR VPWR sky130_ef_sc_hd__decap_12
XFILLER_0_54_362 VGND VGND VPWR VPWR sky130_fd_sc_hd__fill_2