* NGSPICE file created from silly_synthesizer.ext - technology: sky130A

* Black-box entry subcircuit for sky130_fd_sc_hd__a32o_1 abstract view
.subckt sky130_fd_sc_hd__a32o_1 A1 A2 A3 B1 B2 VGND VNB VPB VPWR X
.ends

* Black-box entry subcircuit for sky130_fd_sc_hd__clkbuf_1 abstract view
.subckt sky130_fd_sc_hd__clkbuf_1 A VGND VNB VPB VPWR X
.ends

* Black-box entry subcircuit for sky130_ef_sc_hd__decap_12 abstract view
.subckt sky130_ef_sc_hd__decap_12 VGND VNB VPB VPWR
.ends

* Black-box entry subcircuit for sky130_fd_sc_hd__tapvpwrvgnd_1 abstract view
.subckt sky130_fd_sc_hd__tapvpwrvgnd_1 VGND VPWR
.ends

* Black-box entry subcircuit for sky130_fd_sc_hd__decap_4 abstract view
.subckt sky130_fd_sc_hd__decap_4 VGND VNB VPB VPWR
.ends

* Black-box entry subcircuit for sky130_fd_sc_hd__dfrtp_1 abstract view
.subckt sky130_fd_sc_hd__dfrtp_1 CLK D RESET_B VGND VNB VPB VPWR Q
.ends

* Black-box entry subcircuit for sky130_fd_sc_hd__fill_2 abstract view
.subckt sky130_fd_sc_hd__fill_2 VGND VNB VPB VPWR
.ends

* Black-box entry subcircuit for sky130_fd_sc_hd__fill_1 abstract view
.subckt sky130_fd_sc_hd__fill_1 VGND VNB VPB VPWR
.ends

* Black-box entry subcircuit for sky130_fd_sc_hd__decap_6 abstract view
.subckt sky130_fd_sc_hd__decap_6 VGND VNB VPB VPWR
.ends

* Black-box entry subcircuit for sky130_fd_sc_hd__decap_8 abstract view
.subckt sky130_fd_sc_hd__decap_8 VGND VNB VPB VPWR
.ends

* Black-box entry subcircuit for sky130_fd_sc_hd__nor2_1 abstract view
.subckt sky130_fd_sc_hd__nor2_1 A B VGND VNB VPB VPWR Y
.ends

* Black-box entry subcircuit for sky130_fd_sc_hd__decap_3 abstract view
.subckt sky130_fd_sc_hd__decap_3 VGND VNB VPB VPWR
.ends

* Black-box entry subcircuit for sky130_fd_sc_hd__mux2_1 abstract view
.subckt sky130_fd_sc_hd__mux2_1 A0 A1 S VGND VNB VPB VPWR X
.ends

* Black-box entry subcircuit for sky130_fd_sc_hd__or2_1 abstract view
.subckt sky130_fd_sc_hd__or2_1 A B VGND VNB VPB VPWR X
.ends

* Black-box entry subcircuit for sky130_fd_sc_hd__inv_2 abstract view
.subckt sky130_fd_sc_hd__inv_2 A VGND VNB VPB VPWR Y
.ends

* Black-box entry subcircuit for sky130_fd_sc_hd__a21oi_1 abstract view
.subckt sky130_fd_sc_hd__a21oi_1 A1 A2 B1 VGND VNB VPB VPWR Y
.ends

* Black-box entry subcircuit for sky130_fd_sc_hd__dlygate4sd3_1 abstract view
.subckt sky130_fd_sc_hd__dlygate4sd3_1 A VGND VNB VPB VPWR X
.ends

* Black-box entry subcircuit for sky130_fd_sc_hd__and2b_1 abstract view
.subckt sky130_fd_sc_hd__and2b_1 A_N B VGND VNB VPB VPWR X
.ends

* Black-box entry subcircuit for sky130_fd_sc_hd__nand2_1 abstract view
.subckt sky130_fd_sc_hd__nand2_1 A B VGND VNB VPB VPWR Y
.ends

* Black-box entry subcircuit for sky130_fd_sc_hd__or3_1 abstract view
.subckt sky130_fd_sc_hd__or3_1 A B C VGND VNB VPB VPWR X
.ends

* Black-box entry subcircuit for sky130_fd_sc_hd__clkbuf_4 abstract view
.subckt sky130_fd_sc_hd__clkbuf_4 A VGND VNB VPB VPWR X
.ends

* Black-box entry subcircuit for sky130_fd_sc_hd__nand2_2 abstract view
.subckt sky130_fd_sc_hd__nand2_2 A B VGND VNB VPB VPWR Y
.ends

* Black-box entry subcircuit for sky130_fd_sc_hd__dfxtp_1 abstract view
.subckt sky130_fd_sc_hd__dfxtp_1 CLK D VGND VNB VPB VPWR Q
.ends

* Black-box entry subcircuit for sky130_fd_sc_hd__xnor2_1 abstract view
.subckt sky130_fd_sc_hd__xnor2_1 A B VGND VNB VPB VPWR Y
.ends

* Black-box entry subcircuit for sky130_fd_sc_hd__and2_1 abstract view
.subckt sky130_fd_sc_hd__and2_1 A B VGND VNB VPB VPWR X
.ends

* Black-box entry subcircuit for sky130_fd_sc_hd__o21a_1 abstract view
.subckt sky130_fd_sc_hd__o21a_1 A1 A2 B1 VGND VNB VPB VPWR X
.ends

* Black-box entry subcircuit for sky130_fd_sc_hd__buf_2 abstract view
.subckt sky130_fd_sc_hd__buf_2 A VGND VNB VPB VPWR X
.ends

* Black-box entry subcircuit for sky130_fd_sc_hd__dfrtp_2 abstract view
.subckt sky130_fd_sc_hd__dfrtp_2 CLK D RESET_B VGND VNB VPB VPWR Q
.ends

* Black-box entry subcircuit for sky130_fd_sc_hd__o21ai_1 abstract view
.subckt sky130_fd_sc_hd__o21ai_1 A1 A2 B1 VGND VNB VPB VPWR Y
.ends

* Black-box entry subcircuit for sky130_fd_sc_hd__xor2_1 abstract view
.subckt sky130_fd_sc_hd__xor2_1 A B VGND VNB VPB VPWR X
.ends

* Black-box entry subcircuit for sky130_fd_sc_hd__o2bb2a_1 abstract view
.subckt sky130_fd_sc_hd__o2bb2a_1 A1_N A2_N B1 B2 VGND VNB VPB VPWR X
.ends

* Black-box entry subcircuit for sky130_fd_sc_hd__dfstp_1 abstract view
.subckt sky130_fd_sc_hd__dfstp_1 CLK D SET_B VGND VNB VPB VPWR Q
.ends

* Black-box entry subcircuit for sky130_fd_sc_hd__o211ai_1 abstract view
.subckt sky130_fd_sc_hd__o211ai_1 A1 A2 B1 C1 VGND VNB VPB VPWR Y
.ends

* Black-box entry subcircuit for sky130_fd_sc_hd__or4_1 abstract view
.subckt sky130_fd_sc_hd__or4_1 A B C D VGND VNB VPB VPWR X
.ends

* Black-box entry subcircuit for sky130_fd_sc_hd__a221o_1 abstract view
.subckt sky130_fd_sc_hd__a221o_1 A1 A2 B1 B2 C1 VGND VNB VPB VPWR X
.ends

* Black-box entry subcircuit for sky130_fd_sc_hd__o32a_1 abstract view
.subckt sky130_fd_sc_hd__o32a_1 A1 A2 A3 B1 B2 VGND VNB VPB VPWR X
.ends

* Black-box entry subcircuit for sky130_fd_sc_hd__and3_1 abstract view
.subckt sky130_fd_sc_hd__and3_1 A B C VGND VNB VPB VPWR X
.ends

* Black-box entry subcircuit for sky130_fd_sc_hd__a41oi_4 abstract view
.subckt sky130_fd_sc_hd__a41oi_4 A1 A2 A3 A4 B1 VGND VNB VPB VPWR Y
.ends

* Black-box entry subcircuit for sky130_fd_sc_hd__o22ai_1 abstract view
.subckt sky130_fd_sc_hd__o22ai_1 A1 A2 B1 B2 VGND VNB VPB VPWR Y
.ends

* Black-box entry subcircuit for sky130_fd_sc_hd__a21o_1 abstract view
.subckt sky130_fd_sc_hd__a21o_1 A1 A2 B1 VGND VNB VPB VPWR X
.ends

* Black-box entry subcircuit for sky130_fd_sc_hd__o31a_1 abstract view
.subckt sky130_fd_sc_hd__o31a_1 A1 A2 A3 B1 VGND VNB VPB VPWR X
.ends

* Black-box entry subcircuit for sky130_fd_sc_hd__o221ai_1 abstract view
.subckt sky130_fd_sc_hd__o221ai_1 A1 A2 B1 B2 C1 VGND VNB VPB VPWR Y
.ends

* Black-box entry subcircuit for sky130_fd_sc_hd__dfrtp_4 abstract view
.subckt sky130_fd_sc_hd__dfrtp_4 CLK D RESET_B VGND VNB VPB VPWR Q
.ends

* Black-box entry subcircuit for sky130_fd_sc_hd__or2b_1 abstract view
.subckt sky130_fd_sc_hd__or2b_1 A B_N VGND VNB VPB VPWR X
.ends

* Black-box entry subcircuit for sky130_fd_sc_hd__o211a_1 abstract view
.subckt sky130_fd_sc_hd__o211a_1 A1 A2 B1 C1 VGND VNB VPB VPWR X
.ends

* Black-box entry subcircuit for sky130_fd_sc_hd__a2bb2o_1 abstract view
.subckt sky130_fd_sc_hd__a2bb2o_1 A1_N A2_N B1 B2 VGND VNB VPB VPWR X
.ends

* Black-box entry subcircuit for sky130_fd_sc_hd__a41o_1 abstract view
.subckt sky130_fd_sc_hd__a41o_1 A1 A2 A3 A4 B1 VGND VNB VPB VPWR X
.ends

* Black-box entry subcircuit for sky130_fd_sc_hd__and4_1 abstract view
.subckt sky130_fd_sc_hd__and4_1 A B C D VGND VNB VPB VPWR X
.ends

* Black-box entry subcircuit for sky130_fd_sc_hd__a22o_1 abstract view
.subckt sky130_fd_sc_hd__a22o_1 A1 A2 B1 B2 VGND VNB VPB VPWR X
.ends

* Black-box entry subcircuit for sky130_fd_sc_hd__o311a_1 abstract view
.subckt sky130_fd_sc_hd__o311a_1 A1 A2 A3 B1 C1 VGND VNB VPB VPWR X
.ends

* Black-box entry subcircuit for sky130_fd_sc_hd__nor2_2 abstract view
.subckt sky130_fd_sc_hd__nor2_2 A B VGND VNB VPB VPWR Y
.ends

* Black-box entry subcircuit for sky130_fd_sc_hd__o22a_1 abstract view
.subckt sky130_fd_sc_hd__o22a_1 A1 A2 B1 B2 VGND VNB VPB VPWR X
.ends

* Black-box entry subcircuit for sky130_fd_sc_hd__dfstp_2 abstract view
.subckt sky130_fd_sc_hd__dfstp_2 CLK D SET_B VGND VNB VPB VPWR Q
.ends

* Black-box entry subcircuit for sky130_fd_sc_hd__a31o_1 abstract view
.subckt sky130_fd_sc_hd__a31o_1 A1 A2 A3 B1 VGND VNB VPB VPWR X
.ends

* Black-box entry subcircuit for sky130_fd_sc_hd__xnor2_2 abstract view
.subckt sky130_fd_sc_hd__xnor2_2 A B VGND VNB VPB VPWR Y
.ends

* Black-box entry subcircuit for sky130_fd_sc_hd__buf_4 abstract view
.subckt sky130_fd_sc_hd__buf_4 A VGND VNB VPB VPWR X
.ends

* Black-box entry subcircuit for sky130_fd_sc_hd__and4b_1 abstract view
.subckt sky130_fd_sc_hd__and4b_1 A_N B C D VGND VNB VPB VPWR X
.ends

* Black-box entry subcircuit for sky130_fd_sc_hd__clkbuf_16 abstract view
.subckt sky130_fd_sc_hd__clkbuf_16 A VGND VNB VPB VPWR X
.ends

* Black-box entry subcircuit for sky130_fd_sc_hd__xor2_2 abstract view
.subckt sky130_fd_sc_hd__xor2_2 A B VGND VNB VPB VPWR X
.ends

* Black-box entry subcircuit for sky130_fd_sc_hd__a211o_1 abstract view
.subckt sky130_fd_sc_hd__a211o_1 A1 A2 B1 C1 VGND VNB VPB VPWR X
.ends

* Black-box entry subcircuit for sky130_fd_sc_hd__nand2b_1 abstract view
.subckt sky130_fd_sc_hd__nand2b_1 A_N B VGND VNB VPB VPWR Y
.ends

* Black-box entry subcircuit for sky130_fd_sc_hd__buf_1 abstract view
.subckt sky130_fd_sc_hd__buf_1 A VGND VNB VPB VPWR X
.ends

* Black-box entry subcircuit for sky130_fd_sc_hd__clkdlybuf4s25_1 abstract view
.subckt sky130_fd_sc_hd__clkdlybuf4s25_1 A VGND VNB VPB VPWR X
.ends

* Black-box entry subcircuit for sky130_fd_sc_hd__a21bo_1 abstract view
.subckt sky130_fd_sc_hd__a21bo_1 A1 A2 B1_N VGND VNB VPB VPWR X
.ends

* Black-box entry subcircuit for sky130_fd_sc_hd__nor2b_2 abstract view
.subckt sky130_fd_sc_hd__nor2b_2 A B_N VGND VNB VPB VPWR Y
.ends

* Black-box entry subcircuit for sky130_fd_sc_hd__or3b_1 abstract view
.subckt sky130_fd_sc_hd__or3b_1 A B C_N VGND VNB VPB VPWR X
.ends

* Black-box entry subcircuit for sky130_fd_sc_hd__a211o_2 abstract view
.subckt sky130_fd_sc_hd__a211o_2 A1 A2 B1 C1 VGND VNB VPB VPWR X
.ends

* Black-box entry subcircuit for sky130_fd_sc_hd__or4bb_1 abstract view
.subckt sky130_fd_sc_hd__or4bb_1 A B C_N D_N VGND VNB VPB VPWR X
.ends

* Black-box entry subcircuit for sky130_fd_sc_hd__nor3_1 abstract view
.subckt sky130_fd_sc_hd__nor3_1 A B C VGND VNB VPB VPWR Y
.ends

* Black-box entry subcircuit for sky130_fd_sc_hd__or4b_1 abstract view
.subckt sky130_fd_sc_hd__or4b_1 A B C D_N VGND VNB VPB VPWR X
.ends

* Black-box entry subcircuit for sky130_fd_sc_hd__a21oi_4 abstract view
.subckt sky130_fd_sc_hd__a21oi_4 A1 A2 B1 VGND VNB VPB VPWR Y
.ends

* Black-box entry subcircuit for sky130_fd_sc_hd__a221oi_2 abstract view
.subckt sky130_fd_sc_hd__a221oi_2 A1 A2 B1 B2 C1 VGND VNB VPB VPWR Y
.ends

* Black-box entry subcircuit for sky130_fd_sc_hd__mux4_1 abstract view
.subckt sky130_fd_sc_hd__mux4_1 A0 A1 A2 A3 S0 S1 VGND VNB VPB VPWR X
.ends

* Black-box entry subcircuit for sky130_fd_sc_hd__a311o_1 abstract view
.subckt sky130_fd_sc_hd__a311o_1 A1 A2 A3 B1 C1 VGND VNB VPB VPWR X
.ends

* Black-box entry subcircuit for sky130_fd_sc_hd__a21oi_2 abstract view
.subckt sky130_fd_sc_hd__a21oi_2 A1 A2 B1 VGND VNB VPB VPWR Y
.ends

* Black-box entry subcircuit for sky130_fd_sc_hd__and3_2 abstract view
.subckt sky130_fd_sc_hd__and3_2 A B C VGND VNB VPB VPWR X
.ends

* Black-box entry subcircuit for sky130_fd_sc_hd__or4_4 abstract view
.subckt sky130_fd_sc_hd__or4_4 A B C D VGND VNB VPB VPWR X
.ends

* Black-box entry subcircuit for sky130_fd_sc_hd__nor3_2 abstract view
.subckt sky130_fd_sc_hd__nor3_2 A B C VGND VNB VPB VPWR Y
.ends

* Black-box entry subcircuit for sky130_fd_sc_hd__a31oi_1 abstract view
.subckt sky130_fd_sc_hd__a31oi_1 A1 A2 A3 B1 VGND VNB VPB VPWR Y
.ends

* Black-box entry subcircuit for sky130_fd_sc_hd__or4b_2 abstract view
.subckt sky130_fd_sc_hd__or4b_2 A B C D_N VGND VNB VPB VPWR X
.ends

* Black-box entry subcircuit for sky130_fd_sc_hd__o221a_1 abstract view
.subckt sky130_fd_sc_hd__o221a_1 A1 A2 B1 B2 C1 VGND VNB VPB VPWR X
.ends

* Black-box entry subcircuit for sky130_fd_sc_hd__clkbuf_2 abstract view
.subckt sky130_fd_sc_hd__clkbuf_2 A VGND VNB VPB VPWR X
.ends

* Black-box entry subcircuit for sky130_fd_sc_hd__o21bai_4 abstract view
.subckt sky130_fd_sc_hd__o21bai_4 A1 A2 B1_N VGND VNB VPB VPWR Y
.ends

* Black-box entry subcircuit for sky130_fd_sc_hd__nand4_2 abstract view
.subckt sky130_fd_sc_hd__nand4_2 A B C D VGND VNB VPB VPWR Y
.ends

* Black-box entry subcircuit for sky130_fd_sc_hd__o21ba_1 abstract view
.subckt sky130_fd_sc_hd__o21ba_1 A1 A2 B1_N VGND VNB VPB VPWR X
.ends

* Black-box entry subcircuit for sky130_fd_sc_hd__o41a_1 abstract view
.subckt sky130_fd_sc_hd__o41a_1 A1 A2 A3 A4 B1 VGND VNB VPB VPWR X
.ends

* Black-box entry subcircuit for sky130_fd_sc_hd__nand3_1 abstract view
.subckt sky130_fd_sc_hd__nand3_1 A B C VGND VNB VPB VPWR Y
.ends

* Black-box entry subcircuit for sky130_fd_sc_hd__o211a_2 abstract view
.subckt sky130_fd_sc_hd__o211a_2 A1 A2 B1 C1 VGND VNB VPB VPWR X
.ends

* Black-box entry subcircuit for sky130_fd_sc_hd__and3b_1 abstract view
.subckt sky130_fd_sc_hd__and3b_1 A_N B C VGND VNB VPB VPWR X
.ends

* Black-box entry subcircuit for sky130_fd_sc_hd__or3_2 abstract view
.subckt sky130_fd_sc_hd__or3_2 A B C VGND VNB VPB VPWR X
.ends

* Black-box entry subcircuit for sky130_fd_sc_hd__or4_2 abstract view
.subckt sky130_fd_sc_hd__or4_2 A B C D VGND VNB VPB VPWR X
.ends

* Black-box entry subcircuit for sky130_fd_sc_hd__a311oi_1 abstract view
.subckt sky130_fd_sc_hd__a311oi_1 A1 A2 A3 B1 C1 VGND VNB VPB VPWR Y
.ends

* Black-box entry subcircuit for sky130_fd_sc_hd__nor2b_4 abstract view
.subckt sky130_fd_sc_hd__nor2b_4 A B_N VGND VNB VPB VPWR Y
.ends

* Black-box entry subcircuit for sky130_fd_sc_hd__o31ai_4 abstract view
.subckt sky130_fd_sc_hd__o31ai_4 A1 A2 A3 B1 VGND VNB VPB VPWR Y
.ends

* Black-box entry subcircuit for sky130_fd_sc_hd__or2_2 abstract view
.subckt sky130_fd_sc_hd__or2_2 A B VGND VNB VPB VPWR X
.ends

* Black-box entry subcircuit for sky130_fd_sc_hd__and2_2 abstract view
.subckt sky130_fd_sc_hd__and2_2 A B VGND VNB VPB VPWR X
.ends

* Black-box entry subcircuit for sky130_fd_sc_hd__o31a_2 abstract view
.subckt sky130_fd_sc_hd__o31a_2 A1 A2 A3 B1 VGND VNB VPB VPWR X
.ends

* Black-box entry subcircuit for sky130_fd_sc_hd__o2111ai_2 abstract view
.subckt sky130_fd_sc_hd__o2111ai_2 A1 A2 B1 C1 D1 VGND VNB VPB VPWR Y
.ends

* Black-box entry subcircuit for sky130_fd_sc_hd__or3_4 abstract view
.subckt sky130_fd_sc_hd__or3_4 A B C VGND VNB VPB VPWR X
.ends

* Black-box entry subcircuit for sky130_fd_sc_hd__and3b_2 abstract view
.subckt sky130_fd_sc_hd__and3b_2 A_N B C VGND VNB VPB VPWR X
.ends

* Black-box entry subcircuit for sky130_fd_sc_hd__dlymetal6s2s_1 abstract view
.subckt sky130_fd_sc_hd__dlymetal6s2s_1 A VGND VNB VPB VPWR X
.ends

* Black-box entry subcircuit for sky130_fd_sc_hd__o32a_2 abstract view
.subckt sky130_fd_sc_hd__o32a_2 A1 A2 A3 B1 B2 VGND VNB VPB VPWR X
.ends

* Black-box entry subcircuit for sky130_fd_sc_hd__nor3b_1 abstract view
.subckt sky130_fd_sc_hd__nor3b_1 A B C_N VGND VNB VPB VPWR Y
.ends

* Black-box entry subcircuit for sky130_fd_sc_hd__and4bb_1 abstract view
.subckt sky130_fd_sc_hd__and4bb_1 A_N B_N C D VGND VNB VPB VPWR X
.ends

* Black-box entry subcircuit for sky130_fd_sc_hd__nand2_4 abstract view
.subckt sky130_fd_sc_hd__nand2_4 A B VGND VNB VPB VPWR Y
.ends

* Black-box entry subcircuit for sky130_fd_sc_hd__a2111o_1 abstract view
.subckt sky130_fd_sc_hd__a2111o_1 A1 A2 B1 C1 D1 VGND VNB VPB VPWR X
.ends

* Black-box entry subcircuit for sky130_fd_sc_hd__o21a_2 abstract view
.subckt sky130_fd_sc_hd__o21a_2 A1 A2 B1 VGND VNB VPB VPWR X
.ends

* Black-box entry subcircuit for sky130_fd_sc_hd__a22oi_1 abstract view
.subckt sky130_fd_sc_hd__a22oi_1 A1 A2 B1 B2 VGND VNB VPB VPWR Y
.ends

* Black-box entry subcircuit for sky130_fd_sc_hd__o21ai_4 abstract view
.subckt sky130_fd_sc_hd__o21ai_4 A1 A2 B1 VGND VNB VPB VPWR Y
.ends

* Black-box entry subcircuit for sky130_fd_sc_hd__o31ai_1 abstract view
.subckt sky130_fd_sc_hd__o31ai_1 A1 A2 A3 B1 VGND VNB VPB VPWR Y
.ends

.subckt silly_synthesizer VGND VPWR clk cs gpio[0] gpio[10] gpio[11] gpio[12] gpio[13]
+ gpio[14] gpio[15] gpio[16] gpio[1] gpio[2] gpio[3] gpio[4] gpio[5] gpio[6] gpio[7]
+ gpio[8] gpio[9] nrst pwm
X_2037_ _0487_ _1084_ _0488_ _0405_ net263 VGND VGND VPWR VPWR _0075_ sky130_fd_sc_hd__a32o_1
X_2106_ net247 VGND VGND VPWR VPWR _0106_ sky130_fd_sc_hd__clkbuf_1
XFILLER_0_27_82 VGND VGND VPWR VPWR sky130_ef_sc_hd__decap_12
XTAP_199 VGND VPWR sky130_fd_sc_hd__tapvpwrvgnd_1
XTAP_188 VGND VPWR sky130_fd_sc_hd__tapvpwrvgnd_1
XTAP_177 VGND VPWR sky130_fd_sc_hd__tapvpwrvgnd_1
XFILLER_0_64_339 VGND VGND VPWR VPWR sky130_fd_sc_hd__decap_4
X_2939_ clknet_leaf_12_clk _0145_ net39 VGND VGND VPWR VPWR outputs.divider_buffer\[14\]
+ sky130_fd_sc_hd__dfrtp_1
XFILLER_0_17_222 VGND VGND VPWR VPWR sky130_fd_sc_hd__fill_2
XFILLER_0_72_372 VGND VGND VPWR VPWR sky130_fd_sc_hd__fill_1
XFILLER_0_67_166 VGND VGND VPWR VPWR sky130_fd_sc_hd__fill_2
XFILLER_0_70_309 VGND VGND VPWR VPWR sky130_ef_sc_hd__decap_12
XFILLER_0_63_372 VGND VGND VPWR VPWR sky130_fd_sc_hd__fill_1
XFILLER_0_63_350 VGND VGND VPWR VPWR sky130_fd_sc_hd__decap_6
XFILLER_0_23_225 VGND VGND VPWR VPWR sky130_fd_sc_hd__fill_1
XFILLER_0_48_15 VGND VGND VPWR VPWR sky130_ef_sc_hd__decap_12
XFILLER_0_80_57 VGND VGND VPWR VPWR sky130_fd_sc_hd__fill_2
XFILLER_0_80_13 VGND VGND VPWR VPWR sky130_ef_sc_hd__decap_12
XFILLER_0_58_188 VGND VGND VPWR VPWR sky130_fd_sc_hd__decap_8
XFILLER_0_6_414 VGND VGND VPWR VPWR sky130_fd_sc_hd__decap_6
XFILLER_0_13_51 VGND VGND VPWR VPWR sky130_fd_sc_hd__decap_4
X_2655_ _0979_ VGND VGND VPWR VPWR _0202_ sky130_fd_sc_hd__clkbuf_1
X_1606_ outputs.divider_buffer\[3\] _1214_ VGND VGND VPWR VPWR _1220_ sky130_fd_sc_hd__nor2_1
X_2724_ clknet_leaf_32_clk inputs.random_update_clock.next_count\[1\] net27 VGND VGND
+ VPWR VPWR inputs.random_update_clock.count\[1\] sky130_fd_sc_hd__dfrtp_1
XFILLER_0_1_141 VGND VGND VPWR VPWR sky130_fd_sc_hd__decap_3
XFILLER_0_14_247 VGND VGND VPWR VPWR sky130_fd_sc_hd__decap_4
X_2586_ net225 net294 _0936_ VGND VGND VPWR VPWR _0944_ sky130_fd_sc_hd__mux2_1
X_1537_ outputs.sig_gen.count\[12\] _1162_ VGND VGND VPWR VPWR _1163_ sky130_fd_sc_hd__or2_1
X_1468_ outputs.divider_buffer\[3\] VGND VGND VPWR VPWR _1106_ sky130_fd_sc_hd__inv_2
X_1399_ inputs.random_update_clock.count\[16\] _1060_ net284 VGND VGND VPWR VPWR _1062_
+ sky130_fd_sc_hd__a21oi_1
XFILLER_0_10_475 VGND VGND VPWR VPWR sky130_fd_sc_hd__fill_1
XFILLER_0_69_409 VGND VGND VPWR VPWR sky130_fd_sc_hd__fill_1
XFILLER_0_45_372 VGND VGND VPWR VPWR sky130_fd_sc_hd__fill_2
Xhold170 outputs.div.oscillator_out\[2\] VGND VGND VPWR VPWR net225 sky130_fd_sc_hd__dlygate4sd3_1
XFILLER_0_60_342 VGND VGND VPWR VPWR sky130_fd_sc_hd__decap_6
Xhold192 _0526_ VGND VGND VPWR VPWR net247 sky130_fd_sc_hd__dlygate4sd3_1
Xhold181 outputs.output_gen.count\[4\] VGND VGND VPWR VPWR net236 sky130_fd_sc_hd__dlygate4sd3_1
XFILLER_0_18_29 VGND VGND VPWR VPWR sky130_ef_sc_hd__decap_12
XFILLER_0_50_27 VGND VGND VPWR VPWR sky130_fd_sc_hd__fill_1
XFILLER_0_59_14 VGND VGND VPWR VPWR sky130_fd_sc_hd__decap_3
XFILLER_0_55_169 VGND VGND VPWR VPWR sky130_fd_sc_hd__fill_1
X_2440_ _0658_ _0811_ VGND VGND VPWR VPWR _0843_ sky130_fd_sc_hd__nor2_1
XFILLER_0_3_406 VGND VGND VPWR VPWR sky130_fd_sc_hd__fill_2
XFILLER_0_75_57 VGND VGND VPWR VPWR sky130_fd_sc_hd__decap_4
X_1322_ _1005_ net16 VGND VGND VPWR VPWR _1013_ sky130_fd_sc_hd__and2b_1
X_2371_ _0561_ _0540_ VGND VGND VPWR VPWR _0778_ sky130_fd_sc_hd__nand2_1
XFILLER_0_78_217 VGND VGND VPWR VPWR sky130_fd_sc_hd__decap_3
XFILLER_0_74_445 VGND VGND VPWR VPWR sky130_ef_sc_hd__decap_12
XFILLER_0_61_128 VGND VGND VPWR VPWR sky130_fd_sc_hd__decap_8
XFILLER_0_34_309 VGND VGND VPWR VPWR sky130_ef_sc_hd__decap_12
XFILLER_0_27_361 VGND VGND VPWR VPWR sky130_fd_sc_hd__decap_6
XFILLER_0_24_83 VGND VGND VPWR VPWR sky130_fd_sc_hd__fill_1
XFILLER_0_6_244 VGND VGND VPWR VPWR sky130_fd_sc_hd__fill_2
XFILLER_0_71_3 VGND VGND VPWR VPWR sky130_ef_sc_hd__decap_12
X_2569_ net223 net127 _0925_ VGND VGND VPWR VPWR _0935_ sky130_fd_sc_hd__mux2_1
X_2638_ outputs.shaper.count\[9\] net209 _0966_ VGND VGND VPWR VPWR _0971_ sky130_fd_sc_hd__mux2_1
XFILLER_0_42_386 VGND VGND VPWR VPWR sky130_ef_sc_hd__decap_12
XFILLER_0_42_353 VGND VGND VPWR VPWR sky130_fd_sc_hd__fill_1
X_2707_ clknet_leaf_37_clk net84 net22 VGND VGND VPWR VPWR inputs.random_note_generator.out\[3\]
+ sky130_fd_sc_hd__dfrtp_1
XFILLER_0_10_250 VGND VGND VPWR VPWR sky130_fd_sc_hd__fill_2
XFILLER_0_77_272 VGND VGND VPWR VPWR sky130_fd_sc_hd__decap_4
XFILLER_0_65_401 VGND VGND VPWR VPWR sky130_fd_sc_hd__decap_3
XFILLER_0_52_139 VGND VGND VPWR VPWR sky130_fd_sc_hd__fill_1
XFILLER_0_25_309 VGND VGND VPWR VPWR sky130_fd_sc_hd__decap_8
XFILLER_0_29_39 VGND VGND VPWR VPWR sky130_ef_sc_hd__decap_12
XFILLER_0_61_15 VGND VGND VPWR VPWR sky130_fd_sc_hd__decap_6
XFILLER_0_45_27 VGND VGND VPWR VPWR sky130_ef_sc_hd__decap_12
XFILLER_0_0_18 VGND VGND VPWR VPWR sky130_fd_sc_hd__decap_8
XFILLER_0_0_29 VGND VGND VPWR VPWR sky130_ef_sc_hd__decap_12
X_1940_ _0417_ _0418_ _0423_ VGND VGND VPWR VPWR _0426_ sky130_fd_sc_hd__or3_1
XFILLER_0_56_445 VGND VGND VPWR VPWR sky130_ef_sc_hd__decap_12
X_1871_ _0362_ _0364_ VGND VGND VPWR VPWR _0365_ sky130_fd_sc_hd__nand2_1
XFILLER_0_36_180 VGND VGND VPWR VPWR sky130_fd_sc_hd__decap_4
XFILLER_0_9_27 VGND VGND VPWR VPWR sky130_ef_sc_hd__decap_12
XFILLER_0_16_309 VGND VGND VPWR VPWR sky130_ef_sc_hd__decap_12
X_2423_ net253 _0827_ _0645_ VGND VGND VPWR VPWR _0828_ sky130_fd_sc_hd__mux2_1
XFILLER_0_3_269 VGND VGND VPWR VPWR sky130_fd_sc_hd__decap_8
XFILLER_0_3_225 VGND VGND VPWR VPWR sky130_ef_sc_hd__decap_12
XFILLER_0_10_41 VGND VGND VPWR VPWR sky130_ef_sc_hd__decap_12
XFILLER_0_10_85 VGND VGND VPWR VPWR sky130_ef_sc_hd__decap_12
X_1305_ _1003_ VGND VGND VPWR VPWR _1004_ sky130_fd_sc_hd__clkbuf_4
X_2285_ _0696_ VGND VGND VPWR VPWR _0115_ sky130_fd_sc_hd__clkbuf_1
X_2354_ _0231_ _0680_ VGND VGND VPWR VPWR _0762_ sky130_fd_sc_hd__nand2_1
XFILLER_0_19_61 VGND VGND VPWR VPWR sky130_fd_sc_hd__fill_1
XFILLER_0_59_261 VGND VGND VPWR VPWR sky130_ef_sc_hd__decap_12
XFILLER_0_47_434 VGND VGND VPWR VPWR sky130_ef_sc_hd__decap_12
XFILLER_0_35_93 VGND VGND VPWR VPWR sky130_ef_sc_hd__decap_12
XFILLER_0_42_150 VGND VGND VPWR VPWR sky130_fd_sc_hd__decap_4
XFILLER_0_34_117 VGND VGND VPWR VPWR sky130_fd_sc_hd__fill_1
XFILLER_0_15_342 VGND VGND VPWR VPWR sky130_fd_sc_hd__decap_8
XFILLER_0_30_378 VGND VGND VPWR VPWR sky130_fd_sc_hd__fill_2
XFILLER_0_65_253 VGND VGND VPWR VPWR sky130_fd_sc_hd__decap_8
XFILLER_0_38_445 VGND VGND VPWR VPWR sky130_ef_sc_hd__decap_12
XFILLER_0_18_180 VGND VGND VPWR VPWR sky130_ef_sc_hd__decap_12
XFILLER_0_80_289 VGND VGND VPWR VPWR sky130_fd_sc_hd__decap_4
XTAP_507 VGND VPWR sky130_fd_sc_hd__tapvpwrvgnd_1
X_2070_ _0506_ _0509_ VGND VGND VPWR VPWR _0510_ sky130_fd_sc_hd__nand2_2
XTAP_529 VGND VPWR sky130_fd_sc_hd__tapvpwrvgnd_1
XTAP_518 VGND VPWR sky130_fd_sc_hd__tapvpwrvgnd_1
X_2972_ clknet_leaf_6_clk _0178_ VGND VGND VPWR VPWR outputs.div.oscillator_out\[11\]
+ sky130_fd_sc_hd__dfxtp_1
X_1923_ _0410_ _0411_ VGND VGND VPWR VPWR _0412_ sky130_fd_sc_hd__xnor2_1
XFILLER_0_56_253 VGND VGND VPWR VPWR sky130_fd_sc_hd__decap_3
X_1854_ outputs.div.a\[10\] _0347_ VGND VGND VPWR VPWR _0349_ sky130_fd_sc_hd__nor2_1
X_1785_ _0277_ _0285_ _0286_ _0252_ net154 VGND VGND VPWR VPWR _0025_ sky130_fd_sc_hd__a32o_1
XFILLER_0_21_51 VGND VGND VPWR VPWR sky130_fd_sc_hd__decap_4
XFILLER_0_16_139 VGND VGND VPWR VPWR sky130_fd_sc_hd__fill_1
XFILLER_0_12_389 VGND VGND VPWR VPWR sky130_fd_sc_hd__decap_4
X_2406_ _0538_ _0536_ VGND VGND VPWR VPWR _0811_ sky130_fd_sc_hd__and2_1
XFILLER_0_79_334 VGND VGND VPWR VPWR sky130_fd_sc_hd__fill_2
XFILLER_0_34_3 VGND VGND VPWR VPWR sky130_ef_sc_hd__decap_12
X_2268_ _0622_ _0679_ _0624_ VGND VGND VPWR VPWR _0680_ sky130_fd_sc_hd__mux2_1
X_2199_ inputs.key_encoder.sync_keys\[12\] _0596_ _0586_ VGND VGND VPWR VPWR _0613_
+ sky130_fd_sc_hd__o21a_1
X_2337_ _0648_ _0745_ VGND VGND VPWR VPWR _0746_ sky130_fd_sc_hd__nand2_1
XFILLER_0_47_275 VGND VGND VPWR VPWR sky130_fd_sc_hd__decap_4
XFILLER_0_62_278 VGND VGND VPWR VPWR sky130_fd_sc_hd__fill_2
XFILLER_0_50_418 VGND VGND VPWR VPWR sky130_fd_sc_hd__fill_2
XFILLER_0_7_383 VGND VGND VPWR VPWR sky130_fd_sc_hd__decap_4
XFILLER_0_15_161 VGND VGND VPWR VPWR sky130_fd_sc_hd__decap_3
Xhold63 outputs.div.q\[19\] VGND VGND VPWR VPWR net118 sky130_fd_sc_hd__dlygate4sd3_1
Xhold52 outputs.div.oscillator_out\[6\] VGND VGND VPWR VPWR net107 sky130_fd_sc_hd__dlygate4sd3_1
Xhold74 outputs.div.q_out\[0\] VGND VGND VPWR VPWR net129 sky130_fd_sc_hd__dlygate4sd3_1
XFILLER_0_26_29 VGND VGND VPWR VPWR sky130_ef_sc_hd__decap_12
Xhold30 inputs.random_note_generator.out\[12\] VGND VGND VPWR VPWR net85 sky130_fd_sc_hd__dlygate4sd3_1
Xhold41 inputs.random_update_clock.count\[22\] VGND VGND VPWR VPWR net96 sky130_fd_sc_hd__dlygate4sd3_1
Xhold96 _0060_ VGND VGND VPWR VPWR net151 sky130_fd_sc_hd__dlygate4sd3_1
Xhold85 outputs.div.a\[0\] VGND VGND VPWR VPWR net140 sky130_fd_sc_hd__dlygate4sd3_1
XFILLER_0_38_286 VGND VGND VPWR VPWR sky130_fd_sc_hd__fill_1
XFILLER_0_38_253 VGND VGND VPWR VPWR sky130_fd_sc_hd__decap_3
XTAP_348 VGND VPWR sky130_fd_sc_hd__tapvpwrvgnd_1
XTAP_337 VGND VPWR sky130_fd_sc_hd__tapvpwrvgnd_1
XTAP_326 VGND VPWR sky130_fd_sc_hd__tapvpwrvgnd_1
X_1570_ net296 inputs.down.in VGND VGND VPWR VPWR _1186_ sky130_fd_sc_hd__and2b_1
XTAP_304 VGND VPWR sky130_fd_sc_hd__tapvpwrvgnd_1
XTAP_315 VGND VPWR sky130_fd_sc_hd__tapvpwrvgnd_1
X_2053_ outputs.scaled_buffer\[2\] net201 _0497_ VGND VGND VPWR VPWR _0499_ sky130_fd_sc_hd__mux2_1
XTAP_359 VGND VPWR sky130_fd_sc_hd__tapvpwrvgnd_1
X_2122_ _0535_ VGND VGND VPWR VPWR _0536_ sky130_fd_sc_hd__buf_2
X_2955_ clknet_leaf_5_clk _0161_ VGND VGND VPWR VPWR outputs.signal_buffer2\[12\]
+ sky130_fd_sc_hd__dfxtp_1
XFILLER_0_32_83 VGND VGND VPWR VPWR sky130_fd_sc_hd__fill_1
XFILLER_0_29_275 VGND VGND VPWR VPWR sky130_fd_sc_hd__decap_4
XFILLER_0_17_437 VGND VGND VPWR VPWR sky130_fd_sc_hd__decap_8
X_2886_ clknet_leaf_8_clk outputs.sig_gen.next_count\[15\] net44 VGND VGND VPWR VPWR
+ outputs.sig_gen.count\[15\] sky130_fd_sc_hd__dfrtp_2
X_1906_ outputs.div.m\[15\] _0386_ _0320_ VGND VGND VPWR VPWR _0396_ sky130_fd_sc_hd__o21a_1
X_1837_ _0324_ _0327_ _0333_ VGND VGND VPWR VPWR _0334_ sky130_fd_sc_hd__o21ai_1
X_1768_ outputs.div.m\[3\] _0270_ VGND VGND VPWR VPWR _0271_ sky130_fd_sc_hd__xor2_1
XFILLER_0_12_120 VGND VGND VPWR VPWR sky130_fd_sc_hd__fill_1
X_1699_ _0217_ VGND VGND VPWR VPWR _0008_ sky130_fd_sc_hd__clkbuf_1
XFILLER_0_12_197 VGND VGND VPWR VPWR sky130_fd_sc_hd__decap_4
XFILLER_0_67_337 VGND VGND VPWR VPWR sky130_fd_sc_hd__decap_3
XFILLER_0_75_381 VGND VGND VPWR VPWR sky130_fd_sc_hd__decap_8
XFILLER_0_35_223 VGND VGND VPWR VPWR sky130_fd_sc_hd__fill_1
XFILLER_0_7_180 VGND VGND VPWR VPWR sky130_ef_sc_hd__decap_12
XFILLER_0_31_473 VGND VGND VPWR VPWR sky130_fd_sc_hd__decap_3
Xoutput20 net20 VGND VGND VPWR VPWR pwm sky130_fd_sc_hd__buf_2
XFILLER_0_37_39 VGND VGND VPWR VPWR sky130_ef_sc_hd__decap_12
X_1622_ _1193_ _1194_ _1096_ outputs.shaper.count\[16\] VGND VGND VPWR VPWR _1236_
+ sky130_fd_sc_hd__o2bb2a_1
XFILLER_0_5_117 VGND VGND VPWR VPWR sky130_fd_sc_hd__fill_1
X_2671_ _0768_ _0983_ VGND VGND VPWR VPWR _0991_ sky130_fd_sc_hd__nand2_1
X_2740_ clknet_leaf_30_clk inputs.random_update_clock.next_count\[17\] net29 VGND
+ VGND VPWR VPWR inputs.random_update_clock.count\[17\] sky130_fd_sc_hd__dfrtp_1
X_1553_ _1175_ VGND VGND VPWR VPWR outputs.sig_gen.next_count\[15\] sky130_fd_sc_hd__clkbuf_1
X_1484_ outputs.divider_buffer\[0\] VGND VGND VPWR VPWR _1122_ sky130_fd_sc_hd__inv_2
XTAP_189 VGND VPWR sky130_fd_sc_hd__tapvpwrvgnd_1
XFILLER_0_1_345 VGND VGND VPWR VPWR sky130_fd_sc_hd__fill_1
XTAP_178 VGND VPWR sky130_fd_sc_hd__tapvpwrvgnd_1
XTAP_167 VGND VPWR sky130_fd_sc_hd__tapvpwrvgnd_1
X_2036_ outputs.div.count\[1\] outputs.div.count\[0\] VGND VGND VPWR VPWR _0488_ sky130_fd_sc_hd__or2_1
X_2105_ net246 outputs.div.divisor\[11\] _0522_ VGND VGND VPWR VPWR _0526_ sky130_fd_sc_hd__mux2_1
XFILLER_0_27_94 VGND VGND VPWR VPWR sky130_ef_sc_hd__decap_12
XFILLER_0_76_156 VGND VGND VPWR VPWR sky130_fd_sc_hd__decap_3
XFILLER_0_64_307 VGND VGND VPWR VPWR sky130_fd_sc_hd__fill_1
XFILLER_0_57_381 VGND VGND VPWR VPWR sky130_fd_sc_hd__decap_3
X_2938_ clknet_leaf_12_clk _0144_ net39 VGND VGND VPWR VPWR outputs.divider_buffer\[13\]
+ sky130_fd_sc_hd__dfrtp_2
XFILLER_0_9_423 VGND VGND VPWR VPWR sky130_fd_sc_hd__fill_2
X_2869_ clknet_leaf_26_clk outputs.output_gen.next_count\[6\] net49 VGND VGND VPWR
+ VPWR outputs.output_gen.count\[6\] sky130_fd_sc_hd__dfrtp_1
XTAP_690 VGND VPWR sky130_fd_sc_hd__tapvpwrvgnd_1
XFILLER_0_67_178 VGND VGND VPWR VPWR sky130_fd_sc_hd__decap_6
XFILLER_0_67_145 VGND VGND VPWR VPWR sky130_ef_sc_hd__decap_12
XFILLER_0_48_27 VGND VGND VPWR VPWR sky130_fd_sc_hd__fill_1
XFILLER_0_80_25 VGND VGND VPWR VPWR sky130_fd_sc_hd__decap_3
XFILLER_0_58_145 VGND VGND VPWR VPWR sky130_fd_sc_hd__fill_1
XFILLER_0_54_373 VGND VGND VPWR VPWR sky130_fd_sc_hd__decap_4
XFILLER_0_54_362 VGND VGND VPWR VPWR sky130_fd_sc_hd__fill_2
XFILLER_0_46_307 VGND VGND VPWR VPWR sky130_fd_sc_hd__fill_1
X_2723_ clknet_leaf_32_clk inputs.random_update_clock.next_count\[0\] net27 VGND VGND
+ VPWR VPWR inputs.random_update_clock.count\[0\] sky130_fd_sc_hd__dfstp_1
X_2654_ outputs.shaper.count\[17\] net230 _1089_ VGND VGND VPWR VPWR _0979_ sky130_fd_sc_hd__mux2_1
X_2585_ _0943_ VGND VGND VPWR VPWR _0168_ sky130_fd_sc_hd__clkbuf_1
X_1605_ outputs.divider_buffer\[1\] _1217_ _1216_ _1218_ VGND VGND VPWR VPWR _1219_
+ sky130_fd_sc_hd__o211ai_1
X_1536_ _1116_ _1159_ VGND VGND VPWR VPWR _1162_ sky130_fd_sc_hd__nor2_1
XFILLER_0_22_270 VGND VGND VPWR VPWR sky130_fd_sc_hd__fill_2
XFILLER_0_1_153 VGND VGND VPWR VPWR sky130_ef_sc_hd__decap_12
X_1467_ _1094_ _1098_ _1102_ _1104_ VGND VGND VPWR VPWR _1105_ sky130_fd_sc_hd__or4_1
X_1398_ net168 _1060_ VGND VGND VPWR VPWR inputs.random_update_clock.next_count\[16\]
+ sky130_fd_sc_hd__xor2_1
X_2019_ outputs.div.oscillator_out\[11\] _0475_ _0468_ net118 _0479_ VGND VGND VPWR
+ VPWR _0066_ sky130_fd_sc_hd__a221o_1
XFILLER_0_64_126 VGND VGND VPWR VPWR sky130_ef_sc_hd__decap_12
XFILLER_0_60_365 VGND VGND VPWR VPWR sky130_fd_sc_hd__decap_6
Xhold160 outputs.signal_buffer2\[5\] VGND VGND VPWR VPWR net215 sky130_fd_sc_hd__dlygate4sd3_1
Xhold182 outputs.signal_buffer2\[0\] VGND VGND VPWR VPWR net237 sky130_fd_sc_hd__dlygate4sd3_1
Xhold193 outputs.divider_buffer2\[17\] VGND VGND VPWR VPWR net248 sky130_fd_sc_hd__dlygate4sd3_1