* NGSPICE file created from silly_synthesizer.ext - technology: sky130A

* Black-box entry subcircuit for sky130_fd_sc_hd__decap_3 abstract view
.subckt sky130_fd_sc_hd__decap_3 VGND VNB VPB VPWR
.ends

* Black-box entry subcircuit for sky130_fd_sc_hd__tapvpwrvgnd_1 abstract view
.subckt sky130_fd_sc_hd__tapvpwrvgnd_1 VGND VPWR
.ends

* Black-box entry subcircuit for sky130_fd_sc_hd__o21a_1 abstract view
.subckt sky130_fd_sc_hd__o21a_1 A1 A2 B1 VGND VNB VPB VPWR X
.ends

* Black-box entry subcircuit for sky130_fd_sc_hd__nand2_1 abstract view
.subckt sky130_fd_sc_hd__nand2_1 A B VGND VNB VPB VPWR Y
.ends

* Black-box entry subcircuit for sky130_fd_sc_hd__decap_8 abstract view
.subckt sky130_fd_sc_hd__decap_8 VGND VNB VPB VPWR
.ends

* Black-box entry subcircuit for sky130_fd_sc_hd__fill_1 abstract view
.subckt sky130_fd_sc_hd__fill_1 VGND VNB VPB VPWR
.ends

* Black-box entry subcircuit for sky130_fd_sc_hd__fill_2 abstract view
.subckt sky130_fd_sc_hd__fill_2 VGND VNB VPB VPWR
.ends

* Black-box entry subcircuit for sky130_fd_sc_hd__decap_6 abstract view
.subckt sky130_fd_sc_hd__decap_6 VGND VNB VPB VPWR
.ends

* Black-box entry subcircuit for sky130_ef_sc_hd__decap_12 abstract view
.subckt sky130_ef_sc_hd__decap_12 VGND VNB VPB VPWR
.ends

* Black-box entry subcircuit for sky130_fd_sc_hd__and2b_1 abstract view
.subckt sky130_fd_sc_hd__and2b_1 A_N B VGND VNB VPB VPWR X
.ends

* Black-box entry subcircuit for sky130_fd_sc_hd__decap_4 abstract view
.subckt sky130_fd_sc_hd__decap_4 VGND VNB VPB VPWR
.ends

* Black-box entry subcircuit for sky130_fd_sc_hd__dfrtp_1 abstract view
.subckt sky130_fd_sc_hd__dfrtp_1 CLK D RESET_B VGND VNB VPB VPWR Q
.ends

* Black-box entry subcircuit for sky130_fd_sc_hd__xnor2_1 abstract view
.subckt sky130_fd_sc_hd__xnor2_1 A B VGND VNB VPB VPWR Y
.ends

* Black-box entry subcircuit for sky130_fd_sc_hd__or4_1 abstract view
.subckt sky130_fd_sc_hd__or4_1 A B C D VGND VNB VPB VPWR X
.ends

* Black-box entry subcircuit for sky130_fd_sc_hd__and3_1 abstract view
.subckt sky130_fd_sc_hd__and3_1 A B C VGND VNB VPB VPWR X
.ends

* Black-box entry subcircuit for sky130_fd_sc_hd__a2bb2o_1 abstract view
.subckt sky130_fd_sc_hd__a2bb2o_1 A1_N A2_N B1 B2 VGND VNB VPB VPWR X
.ends

* Black-box entry subcircuit for sky130_fd_sc_hd__dlygate4sd3_1 abstract view
.subckt sky130_fd_sc_hd__dlygate4sd3_1 A VGND VNB VPB VPWR X
.ends

* Black-box entry subcircuit for sky130_fd_sc_hd__clkbuf_1 abstract view
.subckt sky130_fd_sc_hd__clkbuf_1 A VGND VNB VPB VPWR X
.ends

* Black-box entry subcircuit for sky130_fd_sc_hd__nor2_1 abstract view
.subckt sky130_fd_sc_hd__nor2_1 A B VGND VNB VPB VPWR Y
.ends

* Black-box entry subcircuit for sky130_fd_sc_hd__a31o_1 abstract view
.subckt sky130_fd_sc_hd__a31o_1 A1 A2 A3 B1 VGND VNB VPB VPWR X
.ends

* Black-box entry subcircuit for sky130_fd_sc_hd__dfrtp_2 abstract view
.subckt sky130_fd_sc_hd__dfrtp_2 CLK D RESET_B VGND VNB VPB VPWR Q
.ends

* Black-box entry subcircuit for sky130_fd_sc_hd__a221o_1 abstract view
.subckt sky130_fd_sc_hd__a221o_1 A1 A2 B1 B2 C1 VGND VNB VPB VPWR X
.ends

* Black-box entry subcircuit for sky130_fd_sc_hd__and4bb_1 abstract view
.subckt sky130_fd_sc_hd__and4bb_1 A_N B_N C D VGND VNB VPB VPWR X
.ends

* Black-box entry subcircuit for sky130_fd_sc_hd__or2_1 abstract view
.subckt sky130_fd_sc_hd__or2_1 A B VGND VNB VPB VPWR X
.ends

* Black-box entry subcircuit for sky130_fd_sc_hd__or3_1 abstract view
.subckt sky130_fd_sc_hd__or3_1 A B C VGND VNB VPB VPWR X
.ends

* Black-box entry subcircuit for sky130_fd_sc_hd__clkbuf_4 abstract view
.subckt sky130_fd_sc_hd__clkbuf_4 A VGND VNB VPB VPWR X
.ends

* Black-box entry subcircuit for sky130_fd_sc_hd__mux2_1 abstract view
.subckt sky130_fd_sc_hd__mux2_1 A0 A1 S VGND VNB VPB VPWR X
.ends

* Black-box entry subcircuit for sky130_fd_sc_hd__inv_2 abstract view
.subckt sky130_fd_sc_hd__inv_2 A VGND VNB VPB VPWR Y
.ends

* Black-box entry subcircuit for sky130_fd_sc_hd__a41o_1 abstract view
.subckt sky130_fd_sc_hd__a41o_1 A1 A2 A3 A4 B1 VGND VNB VPB VPWR X
.ends

* Black-box entry subcircuit for sky130_fd_sc_hd__and4b_1 abstract view
.subckt sky130_fd_sc_hd__and4b_1 A_N B C D VGND VNB VPB VPWR X
.ends

* Black-box entry subcircuit for sky130_fd_sc_hd__buf_2 abstract view
.subckt sky130_fd_sc_hd__buf_2 A VGND VNB VPB VPWR X
.ends

* Black-box entry subcircuit for sky130_fd_sc_hd__o21ba_1 abstract view
.subckt sky130_fd_sc_hd__o21ba_1 A1 A2 B1_N VGND VNB VPB VPWR X
.ends

* Black-box entry subcircuit for sky130_fd_sc_hd__dfstp_2 abstract view
.subckt sky130_fd_sc_hd__dfstp_2 CLK D SET_B VGND VNB VPB VPWR Q
.ends

* Black-box entry subcircuit for sky130_fd_sc_hd__o21ai_1 abstract view
.subckt sky130_fd_sc_hd__o21ai_1 A1 A2 B1 VGND VNB VPB VPWR Y
.ends

* Black-box entry subcircuit for sky130_fd_sc_hd__o211a_1 abstract view
.subckt sky130_fd_sc_hd__o211a_1 A1 A2 B1 C1 VGND VNB VPB VPWR X
.ends

* Black-box entry subcircuit for sky130_fd_sc_hd__mux4_1 abstract view
.subckt sky130_fd_sc_hd__mux4_1 A0 A1 A2 A3 S0 S1 VGND VNB VPB VPWR X
.ends

* Black-box entry subcircuit for sky130_fd_sc_hd__a311o_1 abstract view
.subckt sky130_fd_sc_hd__a311o_1 A1 A2 A3 B1 C1 VGND VNB VPB VPWR X
.ends

* Black-box entry subcircuit for sky130_fd_sc_hd__and2_1 abstract view
.subckt sky130_fd_sc_hd__and2_1 A B VGND VNB VPB VPWR X
.ends

* Black-box entry subcircuit for sky130_fd_sc_hd__a21oi_1 abstract view
.subckt sky130_fd_sc_hd__a21oi_1 A1 A2 B1 VGND VNB VPB VPWR Y
.ends

* Black-box entry subcircuit for sky130_fd_sc_hd__or4_2 abstract view
.subckt sky130_fd_sc_hd__or4_2 A B C D VGND VNB VPB VPWR X
.ends

* Black-box entry subcircuit for sky130_fd_sc_hd__a32o_1 abstract view
.subckt sky130_fd_sc_hd__a32o_1 A1 A2 A3 B1 B2 VGND VNB VPB VPWR X
.ends

* Black-box entry subcircuit for sky130_fd_sc_hd__dfrtp_4 abstract view
.subckt sky130_fd_sc_hd__dfrtp_4 CLK D RESET_B VGND VNB VPB VPWR Q
.ends

* Black-box entry subcircuit for sky130_fd_sc_hd__o221a_1 abstract view
.subckt sky130_fd_sc_hd__o221a_1 A1 A2 B1 B2 C1 VGND VNB VPB VPWR X
.ends

* Black-box entry subcircuit for sky130_fd_sc_hd__dfstp_1 abstract view
.subckt sky130_fd_sc_hd__dfstp_1 CLK D SET_B VGND VNB VPB VPWR Q
.ends

* Black-box entry subcircuit for sky130_fd_sc_hd__clkbuf_8 abstract view
.subckt sky130_fd_sc_hd__clkbuf_8 A VGND VNB VPB VPWR X
.ends

* Black-box entry subcircuit for sky130_fd_sc_hd__or4bb_1 abstract view
.subckt sky130_fd_sc_hd__or4bb_1 A B C_N D_N VGND VNB VPB VPWR X
.ends

* Black-box entry subcircuit for sky130_fd_sc_hd__nand2_2 abstract view
.subckt sky130_fd_sc_hd__nand2_2 A B VGND VNB VPB VPWR Y
.ends

* Black-box entry subcircuit for sky130_fd_sc_hd__nand3_1 abstract view
.subckt sky130_fd_sc_hd__nand3_1 A B C VGND VNB VPB VPWR Y
.ends

* Black-box entry subcircuit for sky130_fd_sc_hd__buf_4 abstract view
.subckt sky130_fd_sc_hd__buf_4 A VGND VNB VPB VPWR X
.ends

* Black-box entry subcircuit for sky130_fd_sc_hd__or4b_1 abstract view
.subckt sky130_fd_sc_hd__or4b_1 A B C D_N VGND VNB VPB VPWR X
.ends

* Black-box entry subcircuit for sky130_fd_sc_hd__nor2_2 abstract view
.subckt sky130_fd_sc_hd__nor2_2 A B VGND VNB VPB VPWR Y
.ends

* Black-box entry subcircuit for sky130_fd_sc_hd__a22o_1 abstract view
.subckt sky130_fd_sc_hd__a22o_1 A1 A2 B1 B2 VGND VNB VPB VPWR X
.ends

* Black-box entry subcircuit for sky130_fd_sc_hd__a21o_1 abstract view
.subckt sky130_fd_sc_hd__a21o_1 A1 A2 B1 VGND VNB VPB VPWR X
.ends

* Black-box entry subcircuit for sky130_fd_sc_hd__clkbuf_16 abstract view
.subckt sky130_fd_sc_hd__clkbuf_16 A VGND VNB VPB VPWR X
.ends

* Black-box entry subcircuit for sky130_fd_sc_hd__nand2b_2 abstract view
.subckt sky130_fd_sc_hd__nand2b_2 A_N B VGND VNB VPB VPWR Y
.ends

* Black-box entry subcircuit for sky130_fd_sc_hd__o31a_2 abstract view
.subckt sky130_fd_sc_hd__o31a_2 A1 A2 A3 B1 VGND VNB VPB VPWR X
.ends

* Black-box entry subcircuit for sky130_fd_sc_hd__xnor2_2 abstract view
.subckt sky130_fd_sc_hd__xnor2_2 A B VGND VNB VPB VPWR Y
.ends

* Black-box entry subcircuit for sky130_fd_sc_hd__a221oi_2 abstract view
.subckt sky130_fd_sc_hd__a221oi_2 A1 A2 B1 B2 C1 VGND VNB VPB VPWR Y
.ends

* Black-box entry subcircuit for sky130_fd_sc_hd__nand2_4 abstract view
.subckt sky130_fd_sc_hd__nand2_4 A B VGND VNB VPB VPWR Y
.ends

* Black-box entry subcircuit for sky130_fd_sc_hd__or3b_1 abstract view
.subckt sky130_fd_sc_hd__or3b_1 A B C_N VGND VNB VPB VPWR X
.ends

* Black-box entry subcircuit for sky130_fd_sc_hd__a21bo_1 abstract view
.subckt sky130_fd_sc_hd__a21bo_1 A1 A2 B1_N VGND VNB VPB VPWR X
.ends

* Black-box entry subcircuit for sky130_fd_sc_hd__xor2_1 abstract view
.subckt sky130_fd_sc_hd__xor2_1 A B VGND VNB VPB VPWR X
.ends

* Black-box entry subcircuit for sky130_fd_sc_hd__clkbuf_2 abstract view
.subckt sky130_fd_sc_hd__clkbuf_2 A VGND VNB VPB VPWR X
.ends

* Black-box entry subcircuit for sky130_fd_sc_hd__nor3b_1 abstract view
.subckt sky130_fd_sc_hd__nor3b_1 A B C_N VGND VNB VPB VPWR Y
.ends

* Black-box entry subcircuit for sky130_fd_sc_hd__o21a_2 abstract view
.subckt sky130_fd_sc_hd__o21a_2 A1 A2 B1 VGND VNB VPB VPWR X
.ends

* Black-box entry subcircuit for sky130_fd_sc_hd__o221ai_1 abstract view
.subckt sky130_fd_sc_hd__o221ai_1 A1 A2 B1 B2 C1 VGND VNB VPB VPWR Y
.ends

* Black-box entry subcircuit for sky130_fd_sc_hd__buf_1 abstract view
.subckt sky130_fd_sc_hd__buf_1 A VGND VNB VPB VPWR X
.ends

* Black-box entry subcircuit for sky130_fd_sc_hd__or2b_1 abstract view
.subckt sky130_fd_sc_hd__or2b_1 A B_N VGND VNB VPB VPWR X
.ends

* Black-box entry subcircuit for sky130_fd_sc_hd__o22a_1 abstract view
.subckt sky130_fd_sc_hd__o22a_1 A1 A2 B1 B2 VGND VNB VPB VPWR X
.ends

* Black-box entry subcircuit for sky130_fd_sc_hd__o2bb2a_1 abstract view
.subckt sky130_fd_sc_hd__o2bb2a_1 A1_N A2_N B1 B2 VGND VNB VPB VPWR X
.ends

* Black-box entry subcircuit for sky130_fd_sc_hd__o31a_1 abstract view
.subckt sky130_fd_sc_hd__o31a_1 A1 A2 A3 B1 VGND VNB VPB VPWR X
.ends

* Black-box entry subcircuit for sky130_fd_sc_hd__o311a_1 abstract view
.subckt sky130_fd_sc_hd__o311a_1 A1 A2 A3 B1 C1 VGND VNB VPB VPWR X
.ends

* Black-box entry subcircuit for sky130_fd_sc_hd__and4_1 abstract view
.subckt sky130_fd_sc_hd__and4_1 A B C D VGND VNB VPB VPWR X
.ends

* Black-box entry subcircuit for sky130_fd_sc_hd__o32a_2 abstract view
.subckt sky130_fd_sc_hd__o32a_2 A1 A2 A3 B1 B2 VGND VNB VPB VPWR X
.ends

* Black-box entry subcircuit for sky130_fd_sc_hd__a211o_1 abstract view
.subckt sky130_fd_sc_hd__a211o_1 A1 A2 B1 C1 VGND VNB VPB VPWR X
.ends

* Black-box entry subcircuit for sky130_fd_sc_hd__nor3_1 abstract view
.subckt sky130_fd_sc_hd__nor3_1 A B C VGND VNB VPB VPWR Y
.ends

* Black-box entry subcircuit for sky130_fd_sc_hd__o32a_1 abstract view
.subckt sky130_fd_sc_hd__o32a_1 A1 A2 A3 B1 B2 VGND VNB VPB VPWR X
.ends

* Black-box entry subcircuit for sky130_fd_sc_hd__nor2b_2 abstract view
.subckt sky130_fd_sc_hd__nor2b_2 A B_N VGND VNB VPB VPWR Y
.ends

* Black-box entry subcircuit for sky130_fd_sc_hd__nand4_1 abstract view
.subckt sky130_fd_sc_hd__nand4_1 A B C D VGND VNB VPB VPWR Y
.ends

* Black-box entry subcircuit for sky130_fd_sc_hd__a211o_2 abstract view
.subckt sky130_fd_sc_hd__a211o_2 A1 A2 B1 C1 VGND VNB VPB VPWR X
.ends

* Black-box entry subcircuit for sky130_fd_sc_hd__o21ai_4 abstract view
.subckt sky130_fd_sc_hd__o21ai_4 A1 A2 B1 VGND VNB VPB VPWR Y
.ends

* Black-box entry subcircuit for sky130_fd_sc_hd__o31ai_2 abstract view
.subckt sky130_fd_sc_hd__o31ai_2 A1 A2 A3 B1 VGND VNB VPB VPWR Y
.ends

* Black-box entry subcircuit for sky130_fd_sc_hd__a21oi_4 abstract view
.subckt sky130_fd_sc_hd__a21oi_4 A1 A2 B1 VGND VNB VPB VPWR Y
.ends

* Black-box entry subcircuit for sky130_fd_sc_hd__or4b_2 abstract view
.subckt sky130_fd_sc_hd__or4b_2 A B C D_N VGND VNB VPB VPWR X
.ends

* Black-box entry subcircuit for sky130_fd_sc_hd__a31oi_1 abstract view
.subckt sky130_fd_sc_hd__a31oi_1 A1 A2 A3 B1 VGND VNB VPB VPWR Y
.ends

* Black-box entry subcircuit for sky130_fd_sc_hd__or4_4 abstract view
.subckt sky130_fd_sc_hd__or4_4 A B C D VGND VNB VPB VPWR X
.ends

* Black-box entry subcircuit for sky130_fd_sc_hd__o211ai_1 abstract view
.subckt sky130_fd_sc_hd__o211ai_1 A1 A2 B1 C1 VGND VNB VPB VPWR Y
.ends

* Black-box entry subcircuit for sky130_fd_sc_hd__a22oi_1 abstract view
.subckt sky130_fd_sc_hd__a22oi_1 A1 A2 B1 B2 VGND VNB VPB VPWR Y
.ends

* Black-box entry subcircuit for sky130_fd_sc_hd__nor3_2 abstract view
.subckt sky130_fd_sc_hd__nor3_2 A B C VGND VNB VPB VPWR Y
.ends

* Black-box entry subcircuit for sky130_fd_sc_hd__nand4_2 abstract view
.subckt sky130_fd_sc_hd__nand4_2 A B C D VGND VNB VPB VPWR Y
.ends

* Black-box entry subcircuit for sky130_fd_sc_hd__o22ai_1 abstract view
.subckt sky130_fd_sc_hd__o22ai_1 A1 A2 B1 B2 VGND VNB VPB VPWR Y
.ends

* Black-box entry subcircuit for sky130_fd_sc_hd__and3b_1 abstract view
.subckt sky130_fd_sc_hd__and3b_1 A_N B C VGND VNB VPB VPWR X
.ends

* Black-box entry subcircuit for sky130_fd_sc_hd__a41oi_4 abstract view
.subckt sky130_fd_sc_hd__a41oi_4 A1 A2 A3 A4 B1 VGND VNB VPB VPWR Y
.ends

* Black-box entry subcircuit for sky130_fd_sc_hd__o211a_2 abstract view
.subckt sky130_fd_sc_hd__o211a_2 A1 A2 B1 C1 VGND VNB VPB VPWR X
.ends

* Black-box entry subcircuit for sky130_fd_sc_hd__xor2_2 abstract view
.subckt sky130_fd_sc_hd__xor2_2 A B VGND VNB VPB VPWR X
.ends

* Black-box entry subcircuit for sky130_fd_sc_hd__a21oi_2 abstract view
.subckt sky130_fd_sc_hd__a21oi_2 A1 A2 B1 VGND VNB VPB VPWR Y
.ends

* Black-box entry subcircuit for sky130_fd_sc_hd__and3_4 abstract view
.subckt sky130_fd_sc_hd__and3_4 A B C VGND VNB VPB VPWR X
.ends

* Black-box entry subcircuit for sky130_fd_sc_hd__o31ai_4 abstract view
.subckt sky130_fd_sc_hd__o31ai_4 A1 A2 A3 B1 VGND VNB VPB VPWR Y
.ends

* Black-box entry subcircuit for sky130_fd_sc_hd__and2_2 abstract view
.subckt sky130_fd_sc_hd__and2_2 A B VGND VNB VPB VPWR X
.ends

* Black-box entry subcircuit for sky130_fd_sc_hd__o2111ai_2 abstract view
.subckt sky130_fd_sc_hd__o2111ai_2 A1 A2 B1 C1 D1 VGND VNB VPB VPWR Y
.ends

* Black-box entry subcircuit for sky130_fd_sc_hd__or2_2 abstract view
.subckt sky130_fd_sc_hd__or2_2 A B VGND VNB VPB VPWR X
.ends

* Black-box entry subcircuit for sky130_fd_sc_hd__o21bai_4 abstract view
.subckt sky130_fd_sc_hd__o21bai_4 A1 A2 B1_N VGND VNB VPB VPWR Y
.ends

* Black-box entry subcircuit for sky130_fd_sc_hd__and2b_2 abstract view
.subckt sky130_fd_sc_hd__and2b_2 A_N B VGND VNB VPB VPWR X
.ends

* Black-box entry subcircuit for sky130_fd_sc_hd__or3_4 abstract view
.subckt sky130_fd_sc_hd__or3_4 A B C VGND VNB VPB VPWR X
.ends

* Black-box entry subcircuit for sky130_fd_sc_hd__o41ai_1 abstract view
.subckt sky130_fd_sc_hd__o41ai_1 A1 A2 A3 A4 B1 VGND VNB VPB VPWR Y
.ends

* Black-box entry subcircuit for sky130_fd_sc_hd__and3b_2 abstract view
.subckt sky130_fd_sc_hd__and3b_2 A_N B C VGND VNB VPB VPWR X
.ends

* Black-box entry subcircuit for sky130_fd_sc_hd__nor2_4 abstract view
.subckt sky130_fd_sc_hd__nor2_4 A B VGND VNB VPB VPWR Y
.ends

* Black-box entry subcircuit for sky130_fd_sc_hd__o211ai_2 abstract view
.subckt sky130_fd_sc_hd__o211ai_2 A1 A2 B1 C1 VGND VNB VPB VPWR Y
.ends

* Black-box entry subcircuit for sky130_fd_sc_hd__o41a_1 abstract view
.subckt sky130_fd_sc_hd__o41a_1 A1 A2 A3 A4 B1 VGND VNB VPB VPWR X
.ends

* Black-box entry subcircuit for sky130_fd_sc_hd__a221oi_1 abstract view
.subckt sky130_fd_sc_hd__a221oi_1 A1 A2 B1 B2 C1 VGND VNB VPB VPWR Y
.ends

* Black-box entry subcircuit for sky130_fd_sc_hd__o22ai_2 abstract view
.subckt sky130_fd_sc_hd__o22ai_2 A1 A2 B1 B2 VGND VNB VPB VPWR Y
.ends

.subckt silly_synthesizer clk cs gpio[0] gpio[10] gpio[11] gpio[12] gpio[13] gpio[14]
+ gpio[15] gpio[16] gpio[1] gpio[2] gpio[3] gpio[4] gpio[5] gpio[6] gpio[7] gpio[8]
+ gpio[9] nrst pwm vccd1 vssd1
XFILLER_0_49_314 vssd1 vssd1 vccd1 vccd1 sky130_fd_sc_hd__decap_3
XTAP_199 vssd1 vccd1 sky130_fd_sc_hd__tapvpwrvgnd_1
XTAP_188 vssd1 vccd1 sky130_fd_sc_hd__tapvpwrvgnd_1
XTAP_177 vssd1 vccd1 sky130_fd_sc_hd__tapvpwrvgnd_1
X_2037_ _0467_ _0472_ _0474_ vssd1 vssd1 vccd1 vccd1 _0475_ sky130_fd_sc_hd__o21a_1
X_2106_ _0543_ _0528_ vssd1 vssd1 vccd1 vccd1 _0544_ sky130_fd_sc_hd__nand2_1
XFILLER_0_49_369 vssd1 vssd1 vccd1 vccd1 sky130_fd_sc_hd__decap_8
XFILLER_0_67_111 vssd1 vssd1 vccd1 vccd1 sky130_fd_sc_hd__fill_1
XFILLER_0_67_100 vssd1 vssd1 vccd1 vccd1 sky130_fd_sc_hd__fill_2
XFILLER_0_55_317 vssd1 vssd1 vccd1 vccd1 sky130_fd_sc_hd__decap_6
XFILLER_0_70_309 vssd1 vssd1 vccd1 vccd1 sky130_ef_sc_hd__decap_12
XFILLER_0_63_361 vssd1 vssd1 vccd1 vccd1 sky130_ef_sc_hd__decap_12
XFILLER_0_23_214 vssd1 vssd1 vccd1 vccd1 sky130_fd_sc_hd__fill_1
XFILLER_0_48_15 vssd1 vssd1 vccd1 vccd1 sky130_ef_sc_hd__decap_12
XFILLER_0_23_258 vssd1 vssd1 vccd1 vccd1 sky130_fd_sc_hd__fill_1
X_1270_ _0917_ net18 vssd1 vssd1 vccd1 vccd1 _0927_ sky130_fd_sc_hd__and2b_1
XFILLER_0_3_39 vssd1 vssd1 vccd1 vccd1 sky130_ef_sc_hd__decap_12
XFILLER_0_73_169 vssd1 vssd1 vccd1 vccd1 sky130_fd_sc_hd__decap_6
XFILLER_0_58_144 vssd1 vssd1 vccd1 vccd1 sky130_fd_sc_hd__decap_4
X_2655_ clknet_leaf_18_clk inputs.keypad\[16\] net55 vssd1 vssd1 vccd1 vccd1 inputs.keypad_synchronizer.half_sync\[16\]
+ sky130_fd_sc_hd__dfrtp_1
XFILLER_0_54_383 vssd1 vssd1 vccd1 vccd1 sky130_fd_sc_hd__fill_1
X_2724_ clknet_leaf_18_clk net155 net56 vssd1 vssd1 vccd1 vccd1 outputs.div.q_out\[1\]
+ sky130_fd_sc_hd__dfrtp_1
X_1606_ outputs.scaled_buffer\[5\] _1187_ vssd1 vssd1 vccd1 vccd1 _1188_ sky130_fd_sc_hd__xnor2_1
XFILLER_0_1_141 vssd1 vssd1 vccd1 vccd1 sky130_fd_sc_hd__decap_8
XFILLER_0_6_469 vssd1 vssd1 vccd1 vccd1 sky130_fd_sc_hd__fill_1
XFILLER_0_14_225 vssd1 vssd1 vccd1 vccd1 sky130_fd_sc_hd__fill_2
X_1537_ _1115_ _1116_ _1117_ _1118_ vssd1 vssd1 vccd1 vccd1 _1119_ sky130_fd_sc_hd__or4_1
X_1468_ _1041_ _1063_ _1065_ vssd1 vssd1 vccd1 vccd1 _1066_ sky130_fd_sc_hd__and3_1
X_1399_ _1003_ outputs.sig_gen.count\[1\] outputs.divider_buffer\[13\] _1004_ vssd1
+ vssd1 vccd1 vccd1 _1005_ sky130_fd_sc_hd__a2bb2o_1
X_2586_ clknet_leaf_36_clk net77 net24 vssd1 vssd1 vccd1 vccd1 inputs.random_note_generator.out\[12\]
+ sky130_fd_sc_hd__dfrtp_1
XFILLER_0_22_291 vssd1 vssd1 vccd1 vccd1 sky130_ef_sc_hd__decap_12
XFILLER_0_52_309 vssd1 vssd1 vccd1 vccd1 sky130_fd_sc_hd__decap_6
XFILLER_0_49_199 vssd1 vssd1 vccd1 vccd1 sky130_fd_sc_hd__decap_4
Xhold181 outputs.div.a\[22\] vssd1 vssd1 vccd1 vccd1 net243 sky130_fd_sc_hd__dlygate4sd3_1
Xhold170 outputs.div.divisor\[16\] vssd1 vssd1 vccd1 vccd1 net232 sky130_fd_sc_hd__dlygate4sd3_1
Xhold192 inputs.mode_edge.det_edge vssd1 vssd1 vccd1 vccd1 net254 sky130_fd_sc_hd__dlygate4sd3_1
XFILLER_0_18_29 vssd1 vssd1 vccd1 vccd1 sky130_ef_sc_hd__decap_12
XFILLER_0_68_431 vssd1 vssd1 vccd1 vccd1 sky130_ef_sc_hd__decap_12
XFILLER_0_55_125 vssd1 vssd1 vccd1 vccd1 sky130_ef_sc_hd__decap_12
XFILLER_0_50_27 vssd1 vssd1 vccd1 vccd1 sky130_fd_sc_hd__fill_1
XFILLER_0_70_117 vssd1 vssd1 vccd1 vccd1 sky130_fd_sc_hd__decap_4
XFILLER_0_59_47 vssd1 vssd1 vccd1 vccd1 sky130_fd_sc_hd__fill_2
X_2440_ _0847_ vssd1 vssd1 vccd1 vccd1 _0125_ sky130_fd_sc_hd__clkbuf_1
XFILLER_0_36_350 vssd1 vssd1 vccd1 vccd1 sky130_ef_sc_hd__decap_12
XFILLER_0_3_417 vssd1 vssd1 vccd1 vccd1 sky130_ef_sc_hd__decap_12
X_1253_ _0918_ vssd1 vssd1 vccd1 vccd1 inputs.keypad\[0\] sky130_fd_sc_hd__clkbuf_1
XFILLER_0_75_57 vssd1 vssd1 vccd1 vccd1 sky130_ef_sc_hd__decap_12
X_1322_ _0959_ _0960_ vssd1 vssd1 vccd1 vccd1 inputs.random_update_clock.next_count\[9\]
+ sky130_fd_sc_hd__nor2_1
X_2371_ _0572_ _0791_ _0794_ _0796_ vssd1 vssd1 vccd1 vccd1 _0797_ sky130_fd_sc_hd__a31o_1
XFILLER_0_78_239 vssd1 vssd1 vccd1 vccd1 sky130_ef_sc_hd__decap_12
XFILLER_0_74_456 vssd1 vssd1 vccd1 vccd1 sky130_ef_sc_hd__decap_12
XFILLER_0_61_139 vssd1 vssd1 vccd1 vccd1 sky130_fd_sc_hd__decap_8
XFILLER_0_54_191 vssd1 vssd1 vccd1 vccd1 sky130_fd_sc_hd__decap_4
XFILLER_0_46_136 vssd1 vssd1 vccd1 vccd1 sky130_fd_sc_hd__decap_4
XFILLER_0_46_103 vssd1 vssd1 vccd1 vccd1 sky130_fd_sc_hd__fill_1
XFILLER_0_24_83 vssd1 vssd1 vccd1 vccd1 sky130_fd_sc_hd__fill_1
XFILLER_0_6_266 vssd1 vssd1 vccd1 vccd1 sky130_ef_sc_hd__decap_12
XFILLER_0_71_3 vssd1 vssd1 vccd1 vccd1 sky130_ef_sc_hd__decap_12
X_2707_ clknet_leaf_13_clk net97 net58 vssd1 vssd1 vccd1 vccd1 outputs.div.q\[24\]
+ sky130_fd_sc_hd__dfrtp_1
X_2569_ clknet_leaf_27_clk outputs.sample_rate.next_count\[5\] net30 vssd1 vssd1 vccd1
+ vccd1 outputs.sample_rate.count\[5\] sky130_fd_sc_hd__dfrtp_1
X_2638_ clknet_leaf_26_clk net89 net31 vssd1 vssd1 vccd1 vccd1 inputs.key_encoder.octave_key_up
+ sky130_fd_sc_hd__dfrtp_2
XFILLER_0_77_261 vssd1 vssd1 vccd1 vccd1 sky130_ef_sc_hd__decap_12
XFILLER_0_52_139 vssd1 vssd1 vccd1 vccd1 sky130_fd_sc_hd__fill_1
XFILLER_0_61_15 vssd1 vssd1 vccd1 vccd1 sky130_fd_sc_hd__fill_2
XFILLER_0_45_27 vssd1 vssd1 vccd1 vccd1 sky130_ef_sc_hd__decap_12
XFILLER_0_0_18 vssd1 vssd1 vccd1 vccd1 sky130_fd_sc_hd__decap_8
XFILLER_0_0_29 vssd1 vssd1 vccd1 vccd1 sky130_ef_sc_hd__decap_12
X_1940_ outputs.div.q\[25\] _0915_ _0996_ net204 _0418_ vssd1 vssd1 vccd1 vccd1 _0054_
+ sky130_fd_sc_hd__a221o_1
X_1871_ outputs.div.a\[22\] _0355_ vssd1 vssd1 vccd1 vccd1 _0378_ sky130_fd_sc_hd__xnor2_1
XFILLER_0_28_147 vssd1 vssd1 vccd1 vccd1 sky130_ef_sc_hd__decap_12
XFILLER_0_9_27 vssd1 vssd1 vccd1 vccd1 sky130_ef_sc_hd__decap_12
X_2423_ _0838_ vssd1 vssd1 vccd1 vccd1 _0117_ sky130_fd_sc_hd__clkbuf_1
XFILLER_0_24_375 vssd1 vssd1 vccd1 vccd1 sky130_fd_sc_hd__decap_6
XFILLER_0_3_225 vssd1 vssd1 vccd1 vccd1 sky130_fd_sc_hd__decap_4
XFILLER_0_10_41 vssd1 vssd1 vccd1 vccd1 sky130_ef_sc_hd__decap_12
XFILLER_0_10_85 vssd1 vssd1 vccd1 vccd1 sky130_fd_sc_hd__decap_8
X_1305_ inputs.random_update_clock.count\[16\] inputs.random_update_clock.count\[19\]
+ inputs.random_update_clock.count\[18\] inputs.random_update_clock.count\[17\] vssd1
+ vssd1 vccd1 vccd1 _0948_ sky130_fd_sc_hd__and4bb_1
X_2285_ _0541_ _0689_ vssd1 vssd1 vccd1 vccd1 _0716_ sky130_fd_sc_hd__or2_1
X_2354_ _0541_ _0556_ _0754_ vssd1 vssd1 vccd1 vccd1 _0781_ sky130_fd_sc_hd__or3_1
XFILLER_0_59_250 vssd1 vssd1 vccd1 vccd1 sky130_fd_sc_hd__fill_1
XFILLER_0_74_286 vssd1 vssd1 vccd1 vccd1 sky130_ef_sc_hd__decap_12
XFILLER_0_74_253 vssd1 vssd1 vccd1 vccd1 sky130_fd_sc_hd__decap_6
XFILLER_0_62_437 vssd1 vssd1 vccd1 vccd1 sky130_ef_sc_hd__decap_12
XFILLER_0_51_70 vssd1 vssd1 vccd1 vccd1 sky130_fd_sc_hd__fill_2
XFILLER_0_34_117 vssd1 vssd1 vccd1 vccd1 sky130_ef_sc_hd__decap_12
XFILLER_0_42_183 vssd1 vssd1 vccd1 vccd1 sky130_fd_sc_hd__fill_1
XFILLER_0_38_467 vssd1 vssd1 vccd1 vccd1 sky130_fd_sc_hd__decap_3
XFILLER_0_38_445 vssd1 vssd1 vccd1 vccd1 sky130_fd_sc_hd__decap_6
XFILLER_0_25_106 vssd1 vssd1 vccd1 vccd1 sky130_fd_sc_hd__decap_6
XTAP_507 vssd1 vccd1 sky130_fd_sc_hd__tapvpwrvgnd_1
XFILLER_0_40_109 vssd1 vssd1 vccd1 vccd1 sky130_fd_sc_hd__decap_4
XFILLER_0_56_37 vssd1 vssd1 vccd1 vccd1 sky130_fd_sc_hd__fill_1
XFILLER_0_56_15 vssd1 vssd1 vccd1 vccd1 sky130_ef_sc_hd__decap_12
XTAP_529 vssd1 vccd1 sky130_fd_sc_hd__tapvpwrvgnd_1
XTAP_518 vssd1 vccd1 sky130_fd_sc_hd__tapvpwrvgnd_1
X_2070_ _0507_ vssd1 vssd1 vccd1 vccd1 _0508_ sky130_fd_sc_hd__clkbuf_4
XFILLER_0_56_220 vssd1 vssd1 vccd1 vccd1 sky130_fd_sc_hd__decap_4
XFILLER_0_71_212 vssd1 vssd1 vccd1 vccd1 sky130_ef_sc_hd__decap_12
X_1854_ _0359_ _0362_ vssd1 vssd1 vccd1 vccd1 _0364_ sky130_fd_sc_hd__nand2_1
X_1923_ outputs.div.q\[17\] _0400_ _0405_ net137 _0409_ vssd1 vssd1 vccd1 vccd1 _0046_
+ sky130_fd_sc_hd__a221o_1
X_1785_ _0300_ _0301_ vssd1 vssd1 vccd1 vccd1 _0302_ sky130_fd_sc_hd__xnor2_1
XFILLER_0_24_150 vssd1 vssd1 vccd1 vccd1 sky130_ef_sc_hd__decap_12
XFILLER_0_21_40 vssd1 vssd1 vccd1 vccd1 sky130_fd_sc_hd__decap_6
X_2406_ net232 _0827_ _0798_ vssd1 vssd1 vccd1 vccd1 _0828_ sky130_fd_sc_hd__mux2_1
XFILLER_0_46_81 vssd1 vssd1 vccd1 vccd1 sky130_fd_sc_hd__decap_3
XFILLER_0_34_3 vssd1 vssd1 vccd1 vccd1 sky130_ef_sc_hd__decap_12
X_2199_ _0585_ vssd1 vssd1 vccd1 vccd1 _0634_ sky130_fd_sc_hd__inv_2
X_2337_ _0481_ _0581_ _0748_ _0615_ vssd1 vssd1 vccd1 vccd1 _0765_ sky130_fd_sc_hd__a31o_1
X_2268_ _0699_ _0489_ _0494_ _0583_ _0508_ vssd1 vssd1 vccd1 vccd1 _0700_ sky130_fd_sc_hd__a41o_1
XFILLER_0_79_389 vssd1 vssd1 vccd1 vccd1 sky130_fd_sc_hd__decap_3
XFILLER_0_35_426 vssd1 vssd1 vccd1 vccd1 sky130_fd_sc_hd__fill_1
XFILLER_0_50_429 vssd1 vssd1 vccd1 vccd1 sky130_fd_sc_hd__decap_3
XFILLER_0_30_153 vssd1 vssd1 vccd1 vccd1 sky130_fd_sc_hd__fill_1
XFILLER_0_22_109 vssd1 vssd1 vccd1 vccd1 sky130_fd_sc_hd__decap_8
XFILLER_0_7_361 vssd1 vssd1 vccd1 vccd1 sky130_ef_sc_hd__decap_12
Xhold52 outputs.signal_buffer2\[13\] vssd1 vssd1 vccd1 vccd1 net114 sky130_fd_sc_hd__dlygate4sd3_1
Xhold41 outputs.signal_buffer2\[12\] vssd1 vssd1 vccd1 vccd1 net103 sky130_fd_sc_hd__dlygate4sd3_1
Xhold74 _0146_ vssd1 vssd1 vccd1 vccd1 net136 sky130_fd_sc_hd__dlygate4sd3_1
Xhold63 outputs.signal_buffer2\[1\] vssd1 vssd1 vccd1 vccd1 net125 sky130_fd_sc_hd__dlygate4sd3_1
XFILLER_0_26_29 vssd1 vssd1 vccd1 vccd1 sky130_ef_sc_hd__decap_12
Xhold30 inputs.key_encoder.octave_key_up vssd1 vssd1 vccd1 vccd1 net92 sky130_fd_sc_hd__dlygate4sd3_1
XFILLER_0_38_231 vssd1 vssd1 vccd1 vccd1 sky130_fd_sc_hd__fill_1
Xhold96 outputs.sample_rate.next_count\[2\] vssd1 vssd1 vccd1 vccd1 net158 sky130_fd_sc_hd__dlygate4sd3_1
Xhold85 inputs.key_encoder.mode_key vssd1 vssd1 vccd1 vccd1 net147 sky130_fd_sc_hd__dlygate4sd3_1
X_1570_ _1131_ _1134_ _1139_ _1123_ vssd1 vssd1 vccd1 vccd1 _1152_ sky130_fd_sc_hd__and4b_1
XTAP_348 vssd1 vccd1 sky130_fd_sc_hd__tapvpwrvgnd_1
XTAP_337 vssd1 vccd1 sky130_fd_sc_hd__tapvpwrvgnd_1
XTAP_326 vssd1 vccd1 sky130_fd_sc_hd__tapvpwrvgnd_1
XTAP_304 vssd1 vccd1 sky130_fd_sc_hd__tapvpwrvgnd_1
XTAP_315 vssd1 vccd1 sky130_fd_sc_hd__tapvpwrvgnd_1
XTAP_359 vssd1 vccd1 sky130_fd_sc_hd__tapvpwrvgnd_1
X_2053_ _0481_ vssd1 vssd1 vccd1 vccd1 _0491_ sky130_fd_sc_hd__buf_2
X_2122_ _0527_ _0557_ vssd1 vssd1 vccd1 vccd1 _0560_ sky130_fd_sc_hd__nor2_1
XFILLER_0_76_348 vssd1 vssd1 vccd1 vccd1 sky130_ef_sc_hd__decap_12
XFILLER_0_8_125 vssd1 vssd1 vccd1 vccd1 sky130_fd_sc_hd__fill_1
X_1906_ _0914_ vssd1 vssd1 vccd1 vccd1 _0400_ sky130_fd_sc_hd__clkbuf_4
X_1837_ _0330_ _0346_ _0348_ vssd1 vssd1 vccd1 vccd1 _0349_ sky130_fd_sc_hd__o21ba_1
XFILLER_0_44_289 vssd1 vssd1 vccd1 vccd1 sky130_fd_sc_hd__decap_4
XFILLER_0_44_234 vssd1 vssd1 vccd1 vccd1 sky130_fd_sc_hd__decap_6
X_1768_ _0248_ _0285_ vssd1 vssd1 vccd1 vccd1 _0286_ sky130_fd_sc_hd__nand2_1
XFILLER_0_32_418 vssd1 vssd1 vccd1 vccd1 sky130_fd_sc_hd__fill_2
X_1699_ outputs.div.a\[5\] vssd1 vssd1 vccd1 vccd1 _0223_ sky130_fd_sc_hd__inv_2
XFILLER_0_79_197 vssd1 vssd1 vccd1 vccd1 sky130_ef_sc_hd__decap_12
XFILLER_0_79_153 vssd1 vssd1 vccd1 vccd1 sky130_ef_sc_hd__decap_12
Xoutput20 net20 vssd1 vssd1 vccd1 vccd1 pwm sky130_fd_sc_hd__buf_2
XFILLER_0_53_27 vssd1 vssd1 vccd1 vccd1 sky130_ef_sc_hd__decap_12
XFILLER_0_37_39 vssd1 vssd1 vccd1 vccd1 sky130_ef_sc_hd__decap_12
X_2671_ clknet_leaf_20_clk _0017_ net51 vssd1 vssd1 vccd1 vccd1 outputs.div.a\[14\]
+ sky130_fd_sc_hd__dfrtp_1
X_2740_ clknet_leaf_22_clk outputs.output_gen.next_count\[7\] net34 vssd1 vssd1 vccd1
+ vccd1 outputs.output_gen.count\[7\] sky130_fd_sc_hd__dfrtp_1
XFILLER_0_26_289 vssd1 vssd1 vccd1 vccd1 sky130_ef_sc_hd__decap_12
XFILLER_0_26_234 vssd1 vssd1 vccd1 vccd1 sky130_fd_sc_hd__decap_8
X_1622_ _1196_ _1197_ _1198_ _1203_ vssd1 vssd1 vccd1 vccd1 _1204_ sky130_fd_sc_hd__and4b_1
XFILLER_0_78_79 vssd1 vssd1 vccd1 vccd1 sky130_fd_sc_hd__decap_4
X_1484_ _1077_ vssd1 vssd1 vccd1 vccd1 outputs.sig_gen.next_count\[12\] sky130_fd_sc_hd__clkbuf_1
X_1553_ _1019_ outputs.shaper.count\[4\] vssd1 vssd1 vccd1 vccd1 _1135_ sky130_fd_sc_hd__nand2_1
XTAP_189 vssd1 vccd1 sky130_fd_sc_hd__tapvpwrvgnd_1
XTAP_178 vssd1 vccd1 sky130_fd_sc_hd__tapvpwrvgnd_1
XTAP_167 vssd1 vccd1 sky130_fd_sc_hd__tapvpwrvgnd_1
XFILLER_0_76_123 vssd1 vssd1 vccd1 vccd1 sky130_fd_sc_hd__fill_1
X_2036_ _0473_ _0465_ vssd1 vssd1 vccd1 vccd1 _0474_ sky130_fd_sc_hd__nand2_1
X_2105_ inputs.key_encoder.sync_keys\[12\] _0526_ _0516_ vssd1 vssd1 vccd1 vccd1 _0543_
+ sky130_fd_sc_hd__o21a_1
XFILLER_0_64_307 vssd1 vssd1 vccd1 vccd1 sky130_fd_sc_hd__fill_1
XFILLER_0_43_60 vssd1 vssd1 vccd1 vccd1 sky130_fd_sc_hd__decap_6
XFILLER_0_17_201 vssd1 vssd1 vccd1 vccd1 sky130_ef_sc_hd__decap_12
XFILLER_0_17_245 vssd1 vssd1 vccd1 vccd1 sky130_fd_sc_hd__decap_8
X_2869_ clknet_leaf_34_clk _0187_ net22 vssd1 vssd1 vccd1 vccd1 inputs.frequency_lut.rng\[2\]
+ sky130_fd_sc_hd__dfstp_2
XFILLER_0_13_440 vssd1 vssd1 vccd1 vccd1 sky130_fd_sc_hd__decap_8
XTAP_690 vssd1 vccd1 sky130_fd_sc_hd__tapvpwrvgnd_1
XFILLER_0_67_167 vssd1 vssd1 vccd1 vccd1 sky130_fd_sc_hd__fill_1
XFILLER_0_63_373 vssd1 vssd1 vccd1 vccd1 sky130_fd_sc_hd__fill_2
XFILLER_0_48_27 vssd1 vssd1 vccd1 vccd1 sky130_fd_sc_hd__fill_1
XFILLER_0_64_26 vssd1 vssd1 vccd1 vccd1 sky130_fd_sc_hd__fill_2
XFILLER_0_54_351 vssd1 vssd1 vccd1 vccd1 sky130_fd_sc_hd__decap_6
X_2723_ clknet_leaf_17_clk net165 net56 vssd1 vssd1 vccd1 vccd1 outputs.div.q_out\[0\]
+ sky130_fd_sc_hd__dfrtp_1
XFILLER_0_46_307 vssd1 vssd1 vccd1 vccd1 sky130_fd_sc_hd__fill_1
XFILLER_0_39_370 vssd1 vssd1 vccd1 vccd1 sky130_fd_sc_hd__fill_2
X_2654_ clknet_leaf_5_clk inputs.keypad\[15\] net44 vssd1 vssd1 vccd1 vccd1 inputs.keypad_synchronizer.half_sync\[15\]
+ sky130_fd_sc_hd__dfrtp_1
X_1536_ outputs.divider_buffer\[13\] _1110_ vssd1 vssd1 vccd1 vccd1 _1118_ sky130_fd_sc_hd__nor2_1
X_1605_ outputs.scaled_buffer\[4\] _1099_ net21 vssd1 vssd1 vccd1 vccd1 _1187_ sky130_fd_sc_hd__o21ai_1
X_2585_ clknet_leaf_36_clk net93 net24 vssd1 vssd1 vccd1 vccd1 inputs.random_note_generator.out\[11\]
+ sky130_fd_sc_hd__dfrtp_1
XFILLER_0_10_421 vssd1 vssd1 vccd1 vccd1 sky130_ef_sc_hd__decap_12
X_1398_ outputs.sig_gen.count\[13\] vssd1 vssd1 vccd1 vccd1 _1004_ sky130_fd_sc_hd__inv_2
X_1467_ _1064_ vssd1 vssd1 vccd1 vccd1 _1065_ sky130_fd_sc_hd__inv_2
XFILLER_0_1_197 vssd1 vssd1 vccd1 vccd1 sky130_fd_sc_hd__decap_4
XFILLER_0_54_81 vssd1 vssd1 vccd1 vccd1 sky130_fd_sc_hd__decap_3
XFILLER_0_49_167 vssd1 vssd1 vccd1 vccd1 sky130_fd_sc_hd__fill_1