* NGSPICE file created from stopwatch.ext - technology: sky130A

* Black-box entry subcircuit for sky130_fd_sc_hd__tapvpwrvgnd_1 abstract view
.subckt sky130_fd_sc_hd__tapvpwrvgnd_1 VGND VPWR
.ends

* Black-box entry subcircuit for sky130_ef_sc_hd__decap_12 abstract view
.subckt sky130_ef_sc_hd__decap_12 VGND VNB VPB VPWR
.ends

* Black-box entry subcircuit for sky130_fd_sc_hd__decap_8 abstract view
.subckt sky130_fd_sc_hd__decap_8 VGND VNB VPB VPWR
.ends

* Black-box entry subcircuit for sky130_fd_sc_hd__fill_1 abstract view
.subckt sky130_fd_sc_hd__fill_1 VGND VNB VPB VPWR
.ends

* Black-box entry subcircuit for sky130_fd_sc_hd__decap_3 abstract view
.subckt sky130_fd_sc_hd__decap_3 VGND VNB VPB VPWR
.ends

* Black-box entry subcircuit for sky130_fd_sc_hd__decap_6 abstract view
.subckt sky130_fd_sc_hd__decap_6 VGND VNB VPB VPWR
.ends

* Black-box entry subcircuit for sky130_fd_sc_hd__o21a_1 abstract view
.subckt sky130_fd_sc_hd__o21a_1 A1 A2 B1 VGND VNB VPB VPWR X
.ends

* Black-box entry subcircuit for sky130_fd_sc_hd__decap_4 abstract view
.subckt sky130_fd_sc_hd__decap_4 VGND VNB VPB VPWR
.ends

* Black-box entry subcircuit for sky130_fd_sc_hd__o21ai_1 abstract view
.subckt sky130_fd_sc_hd__o21ai_1 A1 A2 B1 VGND VNB VPB VPWR Y
.ends

* Black-box entry subcircuit for sky130_fd_sc_hd__clkbuf_8 abstract view
.subckt sky130_fd_sc_hd__clkbuf_8 A VGND VNB VPB VPWR X
.ends

* Black-box entry subcircuit for sky130_fd_sc_hd__a21o_1 abstract view
.subckt sky130_fd_sc_hd__a21o_1 A1 A2 B1 VGND VNB VPB VPWR X
.ends

* Black-box entry subcircuit for sky130_fd_sc_hd__nor2_1 abstract view
.subckt sky130_fd_sc_hd__nor2_1 A B VGND VNB VPB VPWR Y
.ends

* Black-box entry subcircuit for sky130_fd_sc_hd__fill_2 abstract view
.subckt sky130_fd_sc_hd__fill_2 VGND VNB VPB VPWR
.ends

* Black-box entry subcircuit for sky130_fd_sc_hd__o211a_1 abstract view
.subckt sky130_fd_sc_hd__o211a_1 A1 A2 B1 C1 VGND VNB VPB VPWR X
.ends

* Black-box entry subcircuit for sky130_fd_sc_hd__a22o_1 abstract view
.subckt sky130_fd_sc_hd__a22o_1 A1 A2 B1 B2 VGND VNB VPB VPWR X
.ends

* Black-box entry subcircuit for sky130_fd_sc_hd__dfrtp_1 abstract view
.subckt sky130_fd_sc_hd__dfrtp_1 CLK D RESET_B VGND VNB VPB VPWR Q
.ends

* Black-box entry subcircuit for sky130_fd_sc_hd__mux2_1 abstract view
.subckt sky130_fd_sc_hd__mux2_1 A0 A1 S VGND VNB VPB VPWR X
.ends

* Black-box entry subcircuit for sky130_fd_sc_hd__xnor2_1 abstract view
.subckt sky130_fd_sc_hd__xnor2_1 A B VGND VNB VPB VPWR Y
.ends

* Black-box entry subcircuit for sky130_fd_sc_hd__or2_1 abstract view
.subckt sky130_fd_sc_hd__or2_1 A B VGND VNB VPB VPWR X
.ends

* Black-box entry subcircuit for sky130_fd_sc_hd__dlygate4sd3_1 abstract view
.subckt sky130_fd_sc_hd__dlygate4sd3_1 A VGND VNB VPB VPWR X
.ends

* Black-box entry subcircuit for sky130_fd_sc_hd__and4bb_1 abstract view
.subckt sky130_fd_sc_hd__and4bb_1 A_N B_N C D VGND VNB VPB VPWR X
.ends

* Black-box entry subcircuit for sky130_fd_sc_hd__and2b_1 abstract view
.subckt sky130_fd_sc_hd__and2b_1 A_N B VGND VNB VPB VPWR X
.ends

* Black-box entry subcircuit for sky130_fd_sc_hd__clkbuf_4 abstract view
.subckt sky130_fd_sc_hd__clkbuf_4 A VGND VNB VPB VPWR X
.ends

* Black-box entry subcircuit for sky130_fd_sc_hd__or4_2 abstract view
.subckt sky130_fd_sc_hd__or4_2 A B C D VGND VNB VPB VPWR X
.ends

* Black-box entry subcircuit for sky130_fd_sc_hd__xor2_1 abstract view
.subckt sky130_fd_sc_hd__xor2_1 A B VGND VNB VPB VPWR X
.ends

* Black-box entry subcircuit for sky130_fd_sc_hd__a221o_1 abstract view
.subckt sky130_fd_sc_hd__a221o_1 A1 A2 B1 B2 C1 VGND VNB VPB VPWR X
.ends

* Black-box entry subcircuit for sky130_fd_sc_hd__clkbuf_1 abstract view
.subckt sky130_fd_sc_hd__clkbuf_1 A VGND VNB VPB VPWR X
.ends

* Black-box entry subcircuit for sky130_fd_sc_hd__nand2_2 abstract view
.subckt sky130_fd_sc_hd__nand2_2 A B VGND VNB VPB VPWR Y
.ends

* Black-box entry subcircuit for sky130_fd_sc_hd__inv_2 abstract view
.subckt sky130_fd_sc_hd__inv_2 A VGND VNB VPB VPWR Y
.ends

* Black-box entry subcircuit for sky130_fd_sc_hd__a31o_1 abstract view
.subckt sky130_fd_sc_hd__a31o_1 A1 A2 A3 B1 VGND VNB VPB VPWR X
.ends

* Black-box entry subcircuit for sky130_fd_sc_hd__buf_2 abstract view
.subckt sky130_fd_sc_hd__buf_2 A VGND VNB VPB VPWR X
.ends

* Black-box entry subcircuit for sky130_fd_sc_hd__o32a_1 abstract view
.subckt sky130_fd_sc_hd__o32a_1 A1 A2 A3 B1 B2 VGND VNB VPB VPWR X
.ends

* Black-box entry subcircuit for sky130_fd_sc_hd__or3b_2 abstract view
.subckt sky130_fd_sc_hd__or3b_2 A B C_N VGND VNB VPB VPWR X
.ends

* Black-box entry subcircuit for sky130_fd_sc_hd__and2_1 abstract view
.subckt sky130_fd_sc_hd__and2_1 A B VGND VNB VPB VPWR X
.ends

* Black-box entry subcircuit for sky130_fd_sc_hd__and4_1 abstract view
.subckt sky130_fd_sc_hd__and4_1 A B C D VGND VNB VPB VPWR X
.ends

* Black-box entry subcircuit for sky130_fd_sc_hd__a21bo_1 abstract view
.subckt sky130_fd_sc_hd__a21bo_1 A1 A2 B1_N VGND VNB VPB VPWR X
.ends

* Black-box entry subcircuit for sky130_fd_sc_hd__nand2_1 abstract view
.subckt sky130_fd_sc_hd__nand2_1 A B VGND VNB VPB VPWR Y
.ends

* Black-box entry subcircuit for sky130_fd_sc_hd__a32o_1 abstract view
.subckt sky130_fd_sc_hd__a32o_1 A1 A2 A3 B1 B2 VGND VNB VPB VPWR X
.ends

* Black-box entry subcircuit for sky130_fd_sc_hd__a211oi_1 abstract view
.subckt sky130_fd_sc_hd__a211oi_1 A1 A2 B1 C1 VGND VNB VPB VPWR Y
.ends

* Black-box entry subcircuit for sky130_fd_sc_hd__a21oi_1 abstract view
.subckt sky130_fd_sc_hd__a21oi_1 A1 A2 B1 VGND VNB VPB VPWR Y
.ends

* Black-box entry subcircuit for sky130_fd_sc_hd__nor2_4 abstract view
.subckt sky130_fd_sc_hd__nor2_4 A B VGND VNB VPB VPWR Y
.ends

* Black-box entry subcircuit for sky130_fd_sc_hd__o221a_1 abstract view
.subckt sky130_fd_sc_hd__o221a_1 A1 A2 B1 B2 C1 VGND VNB VPB VPWR X
.ends

* Black-box entry subcircuit for sky130_fd_sc_hd__dfrtp_4 abstract view
.subckt sky130_fd_sc_hd__dfrtp_4 CLK D RESET_B VGND VNB VPB VPWR Q
.ends

* Black-box entry subcircuit for sky130_fd_sc_hd__nor3b_1 abstract view
.subckt sky130_fd_sc_hd__nor3b_1 A B C_N VGND VNB VPB VPWR Y
.ends

* Black-box entry subcircuit for sky130_fd_sc_hd__buf_8 abstract view
.subckt sky130_fd_sc_hd__buf_8 A VGND VNB VPB VPWR X
.ends

* Black-box entry subcircuit for sky130_fd_sc_hd__or4_1 abstract view
.subckt sky130_fd_sc_hd__or4_1 A B C D VGND VNB VPB VPWR X
.ends

* Black-box entry subcircuit for sky130_fd_sc_hd__a31oi_4 abstract view
.subckt sky130_fd_sc_hd__a31oi_4 A1 A2 A3 B1 VGND VNB VPB VPWR Y
.ends

* Black-box entry subcircuit for sky130_fd_sc_hd__a211o_1 abstract view
.subckt sky130_fd_sc_hd__a211o_1 A1 A2 B1 C1 VGND VNB VPB VPWR X
.ends

* Black-box entry subcircuit for sky130_fd_sc_hd__buf_4 abstract view
.subckt sky130_fd_sc_hd__buf_4 A VGND VNB VPB VPWR X
.ends

* Black-box entry subcircuit for sky130_fd_sc_hd__a31o_2 abstract view
.subckt sky130_fd_sc_hd__a31o_2 A1 A2 A3 B1 VGND VNB VPB VPWR X
.ends

* Black-box entry subcircuit for sky130_fd_sc_hd__a31o_4 abstract view
.subckt sky130_fd_sc_hd__a31o_4 A1 A2 A3 B1 VGND VNB VPB VPWR X
.ends

* Black-box entry subcircuit for sky130_fd_sc_hd__or3b_1 abstract view
.subckt sky130_fd_sc_hd__or3b_1 A B C_N VGND VNB VPB VPWR X
.ends

* Black-box entry subcircuit for sky130_fd_sc_hd__or4b_1 abstract view
.subckt sky130_fd_sc_hd__or4b_1 A B C D_N VGND VNB VPB VPWR X
.ends

* Black-box entry subcircuit for sky130_fd_sc_hd__or3_1 abstract view
.subckt sky130_fd_sc_hd__or3_1 A B C VGND VNB VPB VPWR X
.ends

* Black-box entry subcircuit for sky130_fd_sc_hd__nor3_1 abstract view
.subckt sky130_fd_sc_hd__nor3_1 A B C VGND VNB VPB VPWR Y
.ends

* Black-box entry subcircuit for sky130_fd_sc_hd__clkbuf_16 abstract view
.subckt sky130_fd_sc_hd__clkbuf_16 A VGND VNB VPB VPWR X
.ends

* Black-box entry subcircuit for sky130_fd_sc_hd__nand4b_4 abstract view
.subckt sky130_fd_sc_hd__nand4b_4 A_N B C D VGND VNB VPB VPWR Y
.ends

* Black-box entry subcircuit for sky130_fd_sc_hd__nand3_1 abstract view
.subckt sky130_fd_sc_hd__nand3_1 A B C VGND VNB VPB VPWR Y
.ends

* Black-box entry subcircuit for sky130_fd_sc_hd__o22a_1 abstract view
.subckt sky130_fd_sc_hd__o22a_1 A1 A2 B1 B2 VGND VNB VPB VPWR X
.ends

* Black-box entry subcircuit for sky130_fd_sc_hd__buf_6 abstract view
.subckt sky130_fd_sc_hd__buf_6 A VGND VNB VPB VPWR X
.ends

* Black-box entry subcircuit for sky130_fd_sc_hd__dfstp_1 abstract view
.subckt sky130_fd_sc_hd__dfstp_1 CLK D SET_B VGND VNB VPB VPWR Q
.ends

* Black-box entry subcircuit for sky130_fd_sc_hd__and3_1 abstract view
.subckt sky130_fd_sc_hd__and3_1 A B C VGND VNB VPB VPWR X
.ends

* Black-box entry subcircuit for sky130_fd_sc_hd__or2b_2 abstract view
.subckt sky130_fd_sc_hd__or2b_2 A B_N VGND VNB VPB VPWR X
.ends

* Black-box entry subcircuit for sky130_fd_sc_hd__o211ai_2 abstract view
.subckt sky130_fd_sc_hd__o211ai_2 A1 A2 B1 C1 VGND VNB VPB VPWR Y
.ends

* Black-box entry subcircuit for sky130_fd_sc_hd__nor2_2 abstract view
.subckt sky130_fd_sc_hd__nor2_2 A B VGND VNB VPB VPWR Y
.ends

* Black-box entry subcircuit for sky130_fd_sc_hd__dfstp_2 abstract view
.subckt sky130_fd_sc_hd__dfstp_2 CLK D SET_B VGND VNB VPB VPWR Q
.ends

* Black-box entry subcircuit for sky130_fd_sc_hd__o2bb2a_2 abstract view
.subckt sky130_fd_sc_hd__o2bb2a_2 A1_N A2_N B1 B2 VGND VNB VPB VPWR X
.ends

* Black-box entry subcircuit for sky130_fd_sc_hd__nor3b_2 abstract view
.subckt sky130_fd_sc_hd__nor3b_2 A B C_N VGND VNB VPB VPWR Y
.ends

* Black-box entry subcircuit for sky130_fd_sc_hd__o21bai_4 abstract view
.subckt sky130_fd_sc_hd__o21bai_4 A1 A2 B1_N VGND VNB VPB VPWR Y
.ends

* Black-box entry subcircuit for sky130_fd_sc_hd__and4b_1 abstract view
.subckt sky130_fd_sc_hd__and4b_1 A_N B C D VGND VNB VPB VPWR X
.ends

* Black-box entry subcircuit for sky130_fd_sc_hd__nor3b_4 abstract view
.subckt sky130_fd_sc_hd__nor3b_4 A B C_N VGND VNB VPB VPWR Y
.ends

* Black-box entry subcircuit for sky130_fd_sc_hd__or4bb_1 abstract view
.subckt sky130_fd_sc_hd__or4bb_1 A B C_N D_N VGND VNB VPB VPWR X
.ends

* Black-box entry subcircuit for sky130_fd_sc_hd__nand3_2 abstract view
.subckt sky130_fd_sc_hd__nand3_2 A B C VGND VNB VPB VPWR Y
.ends

* Black-box entry subcircuit for sky130_fd_sc_hd__a41o_1 abstract view
.subckt sky130_fd_sc_hd__a41o_1 A1 A2 A3 A4 B1 VGND VNB VPB VPWR X
.ends

* Black-box entry subcircuit for sky130_fd_sc_hd__buf_1 abstract view
.subckt sky130_fd_sc_hd__buf_1 A VGND VNB VPB VPWR X
.ends

* Black-box entry subcircuit for sky130_fd_sc_hd__dfrtp_2 abstract view
.subckt sky130_fd_sc_hd__dfrtp_2 CLK D RESET_B VGND VNB VPB VPWR Q
.ends

* Black-box entry subcircuit for sky130_fd_sc_hd__nor2b_2 abstract view
.subckt sky130_fd_sc_hd__nor2b_2 A B_N VGND VNB VPB VPWR Y
.ends

* Black-box entry subcircuit for sky130_fd_sc_hd__o311a_1 abstract view
.subckt sky130_fd_sc_hd__o311a_1 A1 A2 A3 B1 C1 VGND VNB VPB VPWR X
.ends

* Black-box entry subcircuit for sky130_fd_sc_hd__o21ba_1 abstract view
.subckt sky130_fd_sc_hd__o21ba_1 A1 A2 B1_N VGND VNB VPB VPWR X
.ends

* Black-box entry subcircuit for sky130_fd_sc_hd__a221o_2 abstract view
.subckt sky130_fd_sc_hd__a221o_2 A1 A2 B1 B2 C1 VGND VNB VPB VPWR X
.ends

* Black-box entry subcircuit for sky130_fd_sc_hd__o21bai_1 abstract view
.subckt sky130_fd_sc_hd__o21bai_1 A1 A2 B1_N VGND VNB VPB VPWR Y
.ends

* Black-box entry subcircuit for sky130_fd_sc_hd__xnor2_2 abstract view
.subckt sky130_fd_sc_hd__xnor2_2 A B VGND VNB VPB VPWR Y
.ends

* Black-box entry subcircuit for sky130_fd_sc_hd__o41a_1 abstract view
.subckt sky130_fd_sc_hd__o41a_1 A1 A2 A3 A4 B1 VGND VNB VPB VPWR X
.ends

* Black-box entry subcircuit for sky130_fd_sc_hd__clkbuf_2 abstract view
.subckt sky130_fd_sc_hd__clkbuf_2 A VGND VNB VPB VPWR X
.ends

* Black-box entry subcircuit for sky130_fd_sc_hd__o2bb2a_1 abstract view
.subckt sky130_fd_sc_hd__o2bb2a_1 A1_N A2_N B1 B2 VGND VNB VPB VPWR X
.ends

* Black-box entry subcircuit for sky130_fd_sc_hd__or3_4 abstract view
.subckt sky130_fd_sc_hd__or3_4 A B C VGND VNB VPB VPWR X
.ends

* Black-box entry subcircuit for sky130_fd_sc_hd__nor2_8 abstract view
.subckt sky130_fd_sc_hd__nor2_8 A B VGND VNB VPB VPWR Y
.ends

* Black-box entry subcircuit for sky130_fd_sc_hd__nand2b_4 abstract view
.subckt sky130_fd_sc_hd__nand2b_4 A_N B VGND VNB VPB VPWR Y
.ends

* Black-box entry subcircuit for sky130_fd_sc_hd__and3b_1 abstract view
.subckt sky130_fd_sc_hd__and3b_1 A_N B C VGND VNB VPB VPWR X
.ends

* Black-box entry subcircuit for sky130_fd_sc_hd__a21oi_4 abstract view
.subckt sky130_fd_sc_hd__a21oi_4 A1 A2 B1 VGND VNB VPB VPWR Y
.ends

* Black-box entry subcircuit for sky130_fd_sc_hd__o21ai_2 abstract view
.subckt sky130_fd_sc_hd__o21ai_2 A1 A2 B1 VGND VNB VPB VPWR Y
.ends

* Black-box entry subcircuit for sky130_fd_sc_hd__a22oi_2 abstract view
.subckt sky130_fd_sc_hd__a22oi_2 A1 A2 B1 B2 VGND VNB VPB VPWR Y
.ends

* Black-box entry subcircuit for sky130_fd_sc_hd__or2b_1 abstract view
.subckt sky130_fd_sc_hd__or2b_1 A B_N VGND VNB VPB VPWR X
.ends

* Black-box entry subcircuit for sky130_fd_sc_hd__or2_2 abstract view
.subckt sky130_fd_sc_hd__or2_2 A B VGND VNB VPB VPWR X
.ends

* Black-box entry subcircuit for sky130_fd_sc_hd__clkinv_4 abstract view
.subckt sky130_fd_sc_hd__clkinv_4 A VGND VNB VPB VPWR Y
.ends

* Black-box entry subcircuit for sky130_fd_sc_hd__o21ai_4 abstract view
.subckt sky130_fd_sc_hd__o21ai_4 A1 A2 B1 VGND VNB VPB VPWR Y
.ends

* Black-box entry subcircuit for sky130_fd_sc_hd__nand2b_2 abstract view
.subckt sky130_fd_sc_hd__nand2b_2 A_N B VGND VNB VPB VPWR Y
.ends

* Black-box entry subcircuit for sky130_fd_sc_hd__a2bb2o_1 abstract view
.subckt sky130_fd_sc_hd__a2bb2o_1 A1_N A2_N B1 B2 VGND VNB VPB VPWR X
.ends

* Black-box entry subcircuit for sky130_fd_sc_hd__nand2_8 abstract view
.subckt sky130_fd_sc_hd__nand2_8 A B VGND VNB VPB VPWR Y
.ends

* Black-box entry subcircuit for sky130_fd_sc_hd__a311o_1 abstract view
.subckt sky130_fd_sc_hd__a311o_1 A1 A2 A3 B1 C1 VGND VNB VPB VPWR X
.ends

* Black-box entry subcircuit for sky130_fd_sc_hd__or4bb_4 abstract view
.subckt sky130_fd_sc_hd__or4bb_4 A B C_N D_N VGND VNB VPB VPWR X
.ends

* Black-box entry subcircuit for sky130_fd_sc_hd__and2_2 abstract view
.subckt sky130_fd_sc_hd__and2_2 A B VGND VNB VPB VPWR X
.ends

* Black-box entry subcircuit for sky130_fd_sc_hd__diode_2 abstract view
.subckt sky130_fd_sc_hd__diode_2 DIODE VGND VNB VPB VPWR
.ends

* Black-box entry subcircuit for sky130_fd_sc_hd__a221oi_1 abstract view
.subckt sky130_fd_sc_hd__a221oi_1 A1 A2 B1 B2 C1 VGND VNB VPB VPWR Y
.ends

* Black-box entry subcircuit for sky130_fd_sc_hd__o31a_1 abstract view
.subckt sky130_fd_sc_hd__o31a_1 A1 A2 A3 B1 VGND VNB VPB VPWR X
.ends

* Black-box entry subcircuit for sky130_fd_sc_hd__o211ai_1 abstract view
.subckt sky130_fd_sc_hd__o211ai_1 A1 A2 B1 C1 VGND VNB VPB VPWR Y
.ends

.subckt stopwatch VGND VPWR clk nrst out_0[0] out_0[1] out_0[2] out_0[3] out_0[4]
+ out_0[5] out_0[6] out_1[0] out_1[1] out_1[2] out_1[3] out_1[4] out_1[5] out_1[6]
+ out_2[0] out_2[1] out_2[2] out_2[3] out_2[4] out_2[5] out_2[6] out_3[0] out_3[1]
+ out_3[2] out_3[3] out_3[4] out_3[5] out_3[6] pb_0 pb_1 time_done
XTAP_177 VGND VPWR sky130_fd_sc_hd__tapvpwrvgnd_1
XTAP_188 VGND VPWR sky130_fd_sc_hd__tapvpwrvgnd_1
XTAP_199 VGND VPWR sky130_fd_sc_hd__tapvpwrvgnd_1
XFILLER_0_43_92 VGND VGND VPWR VPWR sky130_ef_sc_hd__decap_12
XFILLER_0_17_255 VGND VGND VPWR VPWR sky130_fd_sc_hd__decap_8
XFILLER_0_23_203 VGND VGND VPWR VPWR sky130_fd_sc_hd__fill_1
XFILLER_0_23_225 VGND VGND VPWR VPWR sky130_fd_sc_hd__decap_3
XFILLER_0_48_15 VGND VGND VPWR VPWR sky130_fd_sc_hd__decap_6
XFILLER_0_31_291 VGND VGND VPWR VPWR sky130_ef_sc_hd__decap_12
XFILLER_0_3_39 VGND VGND VPWR VPWR sky130_ef_sc_hd__decap_12
X_0985_ _0353_ _0440_ _0327_ VGND VGND VPWR VPWR _0441_ sky130_fd_sc_hd__o21a_1
XFILLER_0_49_133 VGND VGND VPWR VPWR sky130_fd_sc_hd__fill_1
XFILLER_0_18_29 VGND VGND VPWR VPWR sky130_fd_sc_hd__decap_4
XFILLER_0_50_27 VGND VGND VPWR VPWR sky130_fd_sc_hd__fill_1
X_0770_ _0264_ _0265_ _0212_ VGND VGND VPWR VPWR _0266_ sky130_fd_sc_hd__o21ai_1
XFILLER_0_46_103 VGND VGND VPWR VPWR sky130_fd_sc_hd__decap_8
Xclkbuf_4_12_0_clk clknet_0_clk VGND VGND VPWR VPWR clknet_4_12_0_clk sky130_fd_sc_hd__clkbuf_8
XFILLER_0_6_277 VGND VGND VPWR VPWR sky130_ef_sc_hd__decap_12
XFILLER_0_6_233 VGND VGND VPWR VPWR sky130_ef_sc_hd__decap_12
X_0968_ TIM.cnt\[5\] _0423_ _0360_ VGND VGND VPWR VPWR _0429_ sky130_fd_sc_hd__a21o_1
XFILLER_0_40_93 VGND VGND VPWR VPWR sky130_fd_sc_hd__decap_3
X_0899_ TIM.cnt\[9\] _0327_ VGND VGND VPWR VPWR _0374_ sky130_fd_sc_hd__nor2_1
XFILLER_0_10_250 VGND VGND VPWR VPWR sky130_fd_sc_hd__fill_2
XFILLER_0_45_180 VGND VGND VPWR VPWR sky130_ef_sc_hd__decap_12
XFILLER_0_45_27 VGND VGND VPWR VPWR sky130_ef_sc_hd__decap_12
XFILLER_0_9_27 VGND VGND VPWR VPWR sky130_ef_sc_hd__decap_12
X_0822_ _0071_ MEM.mem1\[6\] _0069_ _0310_ VGND VGND VPWR VPWR _0311_ sky130_fd_sc_hd__o211a_1
X_0684_ CTR.time_out\[2\] _0233_ _0237_ net50 VGND VGND VPWR VPWR MEM.next_mem1\[2\]
+ sky130_fd_sc_hd__a22o_1
XFILLER_0_3_225 VGND VGND VPWR VPWR sky130_ef_sc_hd__decap_12
XFILLER_0_10_85 VGND VGND VPWR VPWR sky130_ef_sc_hd__decap_12
X_0753_ CTR.time_out\[6\] _0253_ _0254_ net112 VGND VGND VPWR VPWR MEM.next_mem5\[6\]
+ sky130_fd_sc_hd__a22o_1
X_1098_ clknet_4_0_0_clk MEM.next_mem4\[7\] net35 VGND VGND VPWR VPWR MEM.mem4\[7\]
+ sky130_fd_sc_hd__dfrtp_1
X_1021_ clknet_4_5_0_clk net3 net37 VGND VGND VPWR VPWR e2.intermediate sky130_fd_sc_hd__dfrtp_1
X_0805_ _0290_ _0293_ _0125_ VGND VGND VPWR VPWR _0294_ sky130_fd_sc_hd__mux2_1
XFILLER_0_16_139 VGND VGND VPWR VPWR sky130_fd_sc_hd__fill_1
XFILLER_0_21_40 VGND VGND VPWR VPWR sky130_ef_sc_hd__decap_12
X_0598_ net115 _0165_ VGND VGND VPWR VPWR _0008_ sky130_fd_sc_hd__xnor2_1
X_0736_ CTR.time_out\[5\] _0249_ _0250_ net70 VGND VGND VPWR VPWR MEM.next_mem4\[5\]
+ sky130_fd_sc_hd__a22o_1
X_0667_ _0215_ _0221_ VGND VGND VPWR VPWR _0227_ sky130_fd_sc_hd__or2_1
XFILLER_0_24_194 VGND VGND VPWR VPWR sky130_fd_sc_hd__fill_2
XFILLER_0_34_3 VGND VGND VPWR VPWR sky130_ef_sc_hd__decap_12
XFILLER_0_15_161 VGND VGND VPWR VPWR sky130_fd_sc_hd__fill_2
XFILLER_0_22_109 VGND VGND VPWR VPWR sky130_fd_sc_hd__decap_4
Xhold74 CLKDIV.count\[17\] VGND VGND VPWR VPWR net115 sky130_fd_sc_hd__dlygate4sd3_1
Xhold52 MEM.mem2\[1\] VGND VGND VPWR VPWR net93 sky130_fd_sc_hd__dlygate4sd3_1
Xhold41 MEM.mem5\[7\] VGND VGND VPWR VPWR net82 sky130_fd_sc_hd__dlygate4sd3_1
Xhold63 MEM.mem4\[3\] VGND VGND VPWR VPWR net104 sky130_fd_sc_hd__dlygate4sd3_1
Xhold30 MEM.mem5\[11\] VGND VGND VPWR VPWR net71 sky130_fd_sc_hd__dlygate4sd3_1
Xhold85 _0138_ VGND VGND VPWR VPWR net126 sky130_fd_sc_hd__dlygate4sd3_1
XFILLER_0_38_220 VGND VGND VPWR VPWR sky130_ef_sc_hd__decap_12
Xhold96 TIM.cnt\[1\] VGND VGND VPWR VPWR net137 sky130_fd_sc_hd__dlygate4sd3_1
XFILLER_0_38_275 VGND VGND VPWR VPWR sky130_ef_sc_hd__decap_12
XTAP_348 VGND VPWR sky130_fd_sc_hd__tapvpwrvgnd_1
XTAP_337 VGND VPWR sky130_fd_sc_hd__tapvpwrvgnd_1
XTAP_326 VGND VPWR sky130_fd_sc_hd__tapvpwrvgnd_1
XTAP_315 VGND VPWR sky130_fd_sc_hd__tapvpwrvgnd_1
XTAP_304 VGND VPWR sky130_fd_sc_hd__tapvpwrvgnd_1
X_0521_ _0072_ _0070_ MEM.mem3\[7\] _0073_ VGND VGND VPWR VPWR _0114_ sky130_fd_sc_hd__and4bb_1
XTAP_359 VGND VPWR sky130_fd_sc_hd__tapvpwrvgnd_1
X_1004_ _0388_ _0390_ VGND VGND VPWR VPWR _0454_ sky130_fd_sc_hd__and2b_1
XFILLER_0_8_147 VGND VGND VPWR VPWR sky130_ef_sc_hd__decap_12
XFILLER_0_32_72 VGND VGND VPWR VPWR sky130_fd_sc_hd__decap_4
XFILLER_0_44_289 VGND VGND VPWR VPWR sky130_ef_sc_hd__decap_12
XFILLER_0_12_120 VGND VGND VPWR VPWR sky130_fd_sc_hd__decap_8
X_0719_ _0189_ _0246_ _0247_ net77 VGND VGND VPWR VPWR MEM.next_mem3\[3\] sky130_fd_sc_hd__a22o_1
XFILLER_0_50_215 VGND VGND VPWR VPWR sky130_ef_sc_hd__decap_12
XFILLER_0_35_278 VGND VGND VPWR VPWR sky130_fd_sc_hd__fill_2
XFILLER_0_35_201 VGND VGND VPWR VPWR sky130_fd_sc_hd__decap_6
XFILLER_0_50_248 VGND VGND VPWR VPWR sky130_fd_sc_hd__decap_4
Xoutput20 net20 VGND VGND VPWR VPWR out_2[2] sky130_fd_sc_hd__clkbuf_4
Xoutput31 net31 VGND VGND VPWR VPWR out_3[6] sky130_fd_sc_hd__clkbuf_4
Xoutput7 net7 VGND VGND VPWR VPWR out_0[3] sky130_fd_sc_hd__clkbuf_4
XFILLER_0_41_237 VGND VGND VPWR VPWR sky130_ef_sc_hd__decap_12
XTAP_145 VGND VPWR sky130_fd_sc_hd__tapvpwrvgnd_1
XTAP_134 VGND VPWR sky130_fd_sc_hd__tapvpwrvgnd_1
XTAP_123 VGND VPWR sky130_fd_sc_hd__tapvpwrvgnd_1
XTAP_112 VGND VPWR sky130_fd_sc_hd__tapvpwrvgnd_1
XTAP_156 VGND VPWR sky130_fd_sc_hd__tapvpwrvgnd_1
X_0504_ _0094_ _0095_ _0096_ _0097_ VGND VGND VPWR VPWR _0098_ sky130_fd_sc_hd__or4_2
XTAP_167 VGND VPWR sky130_fd_sc_hd__tapvpwrvgnd_1
XTAP_178 VGND VPWR sky130_fd_sc_hd__tapvpwrvgnd_1
XTAP_189 VGND VPWR sky130_fd_sc_hd__tapvpwrvgnd_1
XFILLER_0_4_194 VGND VGND VPWR VPWR sky130_fd_sc_hd__fill_2
XFILLER_0_2_109 VGND VGND VPWR VPWR sky130_ef_sc_hd__decap_12
XFILLER_0_31_281 VGND VGND VPWR VPWR sky130_fd_sc_hd__decap_4
X_0984_ TIM.cnt\[0\] CLKDIV.secpulse VGND VGND VPWR VPWR _0440_ sky130_fd_sc_hd__xor2_1
XFILLER_0_14_215 VGND VGND VPWR VPWR sky130_ef_sc_hd__decap_12
XFILLER_0_11_218 VGND VGND VPWR VPWR sky130_fd_sc_hd__decap_6
XFILLER_0_6_289 VGND VGND VPWR VPWR sky130_ef_sc_hd__decap_12
XFILLER_0_6_245 VGND VGND VPWR VPWR sky130_fd_sc_hd__decap_6
X_0967_ TIM.cnt\[4\] _0358_ _0406_ _0428_ VGND VGND VPWR VPWR _0041_ sky130_fd_sc_hd__a22o_1
X_0898_ net136 _0362_ _0364_ _0373_ VGND VGND VPWR VPWR _0027_ sky130_fd_sc_hd__a22o_1
XFILLER_0_4_83 VGND VGND VPWR VPWR sky130_fd_sc_hd__fill_1
XFILLER_0_37_148 VGND VGND VPWR VPWR sky130_fd_sc_hd__fill_1
XFILLER_0_45_192 VGND VGND VPWR VPWR sky130_ef_sc_hd__decap_12
XFILLER_0_45_39 VGND VGND VPWR VPWR sky130_ef_sc_hd__decap_12
X_0752_ CTR.time_out\[5\] _0253_ _0254_ net75 VGND VGND VPWR VPWR MEM.next_mem5\[5\]
+ sky130_fd_sc_hd__a22o_1
XFILLER_0_9_39 VGND VGND VPWR VPWR sky130_fd_sc_hd__decap_8
X_0821_ MEM.mem4\[6\] _0078_ _0079_ MEM.mem3\[6\] _0309_ VGND VGND VPWR VPWR _0310_
+ sky130_fd_sc_hd__a221o_1
XFILLER_0_51_184 VGND VGND VPWR VPWR sky130_ef_sc_hd__decap_12
X_0683_ _0200_ _0233_ _0237_ net87 VGND VGND VPWR VPWR MEM.next_mem1\[1\] sky130_fd_sc_hd__a22o_1
XFILLER_0_3_237 VGND VGND VPWR VPWR sky130_ef_sc_hd__decap_12
XFILLER_0_10_97 VGND VGND VPWR VPWR sky130_ef_sc_hd__decap_12
X_1097_ clknet_4_1_0_clk MEM.next_mem4\[6\] net35 VGND VGND VPWR VPWR MEM.mem4\[6\]
+ sky130_fd_sc_hd__dfrtp_1
XFILLER_0_51_93 VGND VGND VPWR VPWR sky130_fd_sc_hd__fill_1
XFILLER_0_33_151 VGND VGND VPWR VPWR sky130_ef_sc_hd__decap_12
X_1020_ clknet_4_5_0_clk net44 net38 VGND VGND VPWR VPWR e2.edge_d sky130_fd_sc_hd__dfrtp_1
Xclkbuf_4_11_0_clk clknet_0_clk VGND VGND VPWR VPWR clknet_4_11_0_clk sky130_fd_sc_hd__clkbuf_8
X_0735_ CTR.time_out\[4\] _0249_ _0250_ net107 VGND VGND VPWR VPWR MEM.next_mem4\[4\]
+ sky130_fd_sc_hd__a22o_1
X_0804_ _0111_ _0292_ _0133_ VGND VGND VPWR VPWR _0293_ sky130_fd_sc_hd__mux2_1
XFILLER_0_16_107 VGND VGND VPWR VPWR sky130_ef_sc_hd__decap_12
XFILLER_0_21_52 VGND VGND VPWR VPWR sky130_fd_sc_hd__decap_4
X_0597_ _0167_ VGND VGND VPWR VPWR _0007_ sky130_fd_sc_hd__clkbuf_1
X_0666_ _0226_ VGND VGND VPWR VPWR net13 sky130_fd_sc_hd__clkbuf_1
XFILLER_0_1_51 VGND VGND VPWR VPWR sky130_fd_sc_hd__decap_4
XFILLER_0_27_3 VGND VGND VPWR VPWR sky130_ef_sc_hd__decap_12
Xhold75 CLKDIV.count\[11\] VGND VGND VPWR VPWR net116 sky130_fd_sc_hd__dlygate4sd3_1
Xhold64 CLKDIV.count\[14\] VGND VGND VPWR VPWR net105 sky130_fd_sc_hd__dlygate4sd3_1
Xhold53 MEM.mem2\[5\] VGND VGND VPWR VPWR net94 sky130_fd_sc_hd__dlygate4sd3_1
Xhold42 MEM.mem2\[10\] VGND VGND VPWR VPWR net83 sky130_fd_sc_hd__dlygate4sd3_1
Xhold86 TIM.cnt\[9\] VGND VGND VPWR VPWR net127 sky130_fd_sc_hd__dlygate4sd3_1
Xhold20 MEM.mem5\[9\] VGND VGND VPWR VPWR net61 sky130_fd_sc_hd__dlygate4sd3_1
Xhold31 MEM.mem4\[0\] VGND VGND VPWR VPWR net72 sky130_fd_sc_hd__dlygate4sd3_1
XFILLER_0_42_29 VGND VGND VPWR VPWR sky130_fd_sc_hd__decap_6
XFILLER_0_38_232 VGND VGND VPWR VPWR sky130_ef_sc_hd__decap_12
XFILLER_0_38_287 VGND VGND VPWR VPWR sky130_ef_sc_hd__decap_12
XTAP_349 VGND VPWR sky130_fd_sc_hd__tapvpwrvgnd_1
XTAP_338 VGND VPWR sky130_fd_sc_hd__tapvpwrvgnd_1
XTAP_327 VGND VPWR sky130_fd_sc_hd__tapvpwrvgnd_1
XTAP_316 VGND VPWR sky130_fd_sc_hd__tapvpwrvgnd_1
XTAP_305 VGND VPWR sky130_fd_sc_hd__tapvpwrvgnd_1
XFILLER_0_6_29 VGND VGND VPWR VPWR sky130_fd_sc_hd__fill_2
X_0520_ _0092_ _0093_ VGND VGND VPWR VPWR _0113_ sky130_fd_sc_hd__nand2_2
XFILLER_0_21_165 VGND VGND VPWR VPWR sky130_fd_sc_hd__decap_3
XFILLER_0_21_187 VGND VGND VPWR VPWR sky130_fd_sc_hd__fill_1
X_1003_ _0452_ VGND VGND VPWR VPWR _0453_ sky130_fd_sc_hd__inv_2
XFILLER_0_16_74 VGND VGND VPWR VPWR sky130_fd_sc_hd__decap_8
XFILLER_0_16_85 VGND VGND VPWR VPWR sky130_fd_sc_hd__decap_8
XFILLER_0_44_202 VGND VGND VPWR VPWR sky130_ef_sc_hd__decap_12
XFILLER_0_8_159 VGND VGND VPWR VPWR sky130_ef_sc_hd__decap_12
XFILLER_0_12_132 VGND VGND VPWR VPWR sky130_fd_sc_hd__decap_3
XFILLER_0_12_154 VGND VGND VPWR VPWR sky130_ef_sc_hd__decap_12
X_0718_ CTR.time_out\[2\] _0246_ _0247_ net76 VGND VGND VPWR VPWR MEM.next_mem3\[2\]
+ sky130_fd_sc_hd__a22o_1
X_0649_ _0069_ _0193_ _0194_ _0195_ VGND VGND VPWR VPWR _0212_ sky130_fd_sc_hd__a31o_1
XFILLER_0_50_227 VGND VGND VPWR VPWR sky130_ef_sc_hd__decap_12
Xoutput8 net8 VGND VGND VPWR VPWR out_0[4] sky130_fd_sc_hd__clkbuf_4
Xoutput21 net21 VGND VGND VPWR VPWR out_2[3] sky130_fd_sc_hd__buf_2
Xoutput32 net32 VGND VGND VPWR VPWR time_done sky130_fd_sc_hd__buf_2
Xoutput10 net10 VGND VGND VPWR VPWR out_0[6] sky130_fd_sc_hd__buf_2
XFILLER_0_41_249 VGND VGND VPWR VPWR sky130_ef_sc_hd__decap_12
XFILLER_0_26_268 VGND VGND VPWR VPWR sky130_fd_sc_hd__decap_4
XTAP_146 VGND VPWR sky130_fd_sc_hd__tapvpwrvgnd_1
XTAP_135 VGND VPWR sky130_fd_sc_hd__tapvpwrvgnd_1
XTAP_124 VGND VPWR sky130_fd_sc_hd__tapvpwrvgnd_1
XTAP_113 VGND VPWR sky130_fd_sc_hd__tapvpwrvgnd_1
XTAP_157 VGND VPWR sky130_fd_sc_hd__tapvpwrvgnd_1
X_0503_ _0072_ _0073_ MEM.mem5\[10\] _0070_ VGND VGND VPWR VPWR _0097_ sky130_fd_sc_hd__a31o_1
XTAP_168 VGND VPWR sky130_fd_sc_hd__tapvpwrvgnd_1
XTAP_179 VGND VPWR sky130_fd_sc_hd__tapvpwrvgnd_1
XFILLER_0_7_50 VGND VGND VPWR VPWR sky130_fd_sc_hd__decap_6
XFILLER_0_2_9 VGND VGND VPWR VPWR sky130_fd_sc_hd__decap_3
X_0983_ _0071_ _0340_ _0076_ _0439_ VGND VGND VPWR VPWR _0046_ sky130_fd_sc_hd__a31o_1
XFILLER_0_14_227 VGND VGND VPWR VPWR sky130_fd_sc_hd__decap_3
XFILLER_0_1_187 VGND VGND VPWR VPWR sky130_ef_sc_hd__decap_12
XFILLER_0_9_221 VGND VGND VPWR VPWR sky130_fd_sc_hd__decap_3
XFILLER_0_9_298 VGND VGND VPWR VPWR sky130_fd_sc_hd__fill_1
XFILLER_0_50_29 VGND VGND VPWR VPWR sky130_ef_sc_hd__decap_12
XFILLER_0_48_190 VGND VGND VPWR VPWR sky130_fd_sc_hd__decap_6
XFILLER_0_24_85 VGND VGND VPWR VPWR sky130_fd_sc_hd__decap_3
X_0897_ _0371_ _0372_ VGND VGND VPWR VPWR _0373_ sky130_fd_sc_hd__nor2_1
X_0966_ _0360_ _0424_ _0425_ _0427_ _0327_ VGND VGND VPWR VPWR _0428_ sky130_fd_sc_hd__o32a_1
XFILLER_0_10_263 VGND VGND VPWR VPWR sky130_fd_sc_hd__decap_3
XFILLER_0_10_274 VGND VGND VPWR VPWR sky130_fd_sc_hd__fill_2
XFILLER_0_45_160 VGND VGND VPWR VPWR sky130_fd_sc_hd__decap_8
X_0751_ CTR.time_out\[4\] _0253_ _0254_ net89 VGND VGND VPWR VPWR MEM.next_mem5\[4\]
+ sky130_fd_sc_hd__a22o_1
X_0820_ MEM.mem5\[6\] _0075_ _0076_ MEM.mem2\[6\] _0070_ VGND VGND VPWR VPWR _0309_
+ sky130_fd_sc_hd__a221o_1
X_0682_ _0229_ _0233_ _0237_ net57 VGND VGND VPWR VPWR MEM.next_mem1\[0\] sky130_fd_sc_hd__a22o_1
XFILLER_0_35_84 VGND VGND VPWR VPWR sky130_fd_sc_hd__fill_2
XFILLER_0_29_7 VGND VGND VPWR VPWR sky130_fd_sc_hd__fill_1
X_1096_ clknet_4_6_0_clk MEM.next_mem4\[5\] net38 VGND VGND VPWR VPWR MEM.mem4\[5\]
+ sky130_fd_sc_hd__dfrtp_1
XFILLER_0_51_83 VGND VGND VPWR VPWR sky130_fd_sc_hd__fill_1
XFILLER_0_42_141 VGND VGND VPWR VPWR sky130_fd_sc_hd__decap_8
X_0949_ _0350_ _0412_ _0348_ VGND VGND VPWR VPWR _0413_ sky130_fd_sc_hd__a21o_1
XFILLER_0_33_163 VGND VGND VPWR VPWR sky130_fd_sc_hd__decap_4
XFILLER_0_18_160 VGND VGND VPWR VPWR sky130_fd_sc_hd__fill_1
XFILLER_0_16_119 VGND VGND VPWR VPWR sky130_ef_sc_hd__decap_12
X_0665_ _0218_ _0220_ _0225_ VGND VGND VPWR VPWR _0226_ sky130_fd_sc_hd__or3b_2
X_0803_ _0127_ _0290_ _0291_ VGND VGND VPWR VPWR _0292_ sky130_fd_sc_hd__o21ai_1
XFILLER_0_21_64 VGND VGND VPWR VPWR sky130_ef_sc_hd__decap_12
XFILLER_0_24_141 VGND VGND VPWR VPWR sky130_fd_sc_hd__decap_3
X_0734_ _0189_ _0249_ _0250_ net104 VGND VGND VPWR VPWR MEM.next_mem4\[3\] sky130_fd_sc_hd__a22o_1
X_0596_ _0165_ _0166_ VGND VGND VPWR VPWR _0167_ sky130_fd_sc_hd__and2_1
XFILLER_0_47_222 VGND VGND VPWR VPWR sky130_fd_sc_hd__fill_2
XFILLER_0_46_83 VGND VGND VPWR VPWR sky130_fd_sc_hd__fill_1
X_1079_ clknet_4_6_0_clk MEM.next_mem5\[0\] net38 VGND VGND VPWR VPWR MEM.mem5\[0\]
+ sky130_fd_sc_hd__dfrtp_1
XFILLER_0_47_277 VGND VGND VPWR VPWR sky130_fd_sc_hd__decap_3
Xhold65 _0162_ VGND VGND VPWR VPWR net106 sky130_fd_sc_hd__dlygate4sd3_1
Xhold32 MEM.mem2\[8\] VGND VGND VPWR VPWR net73 sky130_fd_sc_hd__dlygate4sd3_1
Xhold43 MEM.mem3\[10\] VGND VGND VPWR VPWR net84 sky130_fd_sc_hd__dlygate4sd3_1
Xhold87 TIM.cnt\[10\] VGND VGND VPWR VPWR net128 sky130_fd_sc_hd__dlygate4sd3_1
Xhold10 MEM.mem1\[9\] VGND VGND VPWR VPWR net51 sky130_fd_sc_hd__dlygate4sd3_1
Xhold76 net32 VGND VGND VPWR VPWR net117 sky130_fd_sc_hd__dlygate4sd3_1
Xhold21 MEM.mem3\[6\] VGND VGND VPWR VPWR net62 sky130_fd_sc_hd__dlygate4sd3_1
Xhold54 MEM.mem5\[3\] VGND VGND VPWR VPWR net95 sky130_fd_sc_hd__dlygate4sd3_1
XFILLER_0_38_244 VGND VGND VPWR VPWR sky130_fd_sc_hd__decap_8
XFILLER_0_38_299 VGND VGND VPWR VPWR sky130_fd_sc_hd__decap_6
XTAP_339 VGND VPWR sky130_fd_sc_hd__tapvpwrvgnd_1
XTAP_328 VGND VPWR sky130_fd_sc_hd__tapvpwrvgnd_1
XTAP_317 VGND VPWR sky130_fd_sc_hd__tapvpwrvgnd_1
XTAP_306 VGND VPWR sky130_fd_sc_hd__tapvpwrvgnd_1
X_1002_ _0200_ _0229_ CTR.time_out\[2\] CLKDIV.secpulse VGND VGND VPWR VPWR _0452_
+ sky130_fd_sc_hd__and4_1
XFILLER_0_44_214 VGND VGND VPWR VPWR sky130_ef_sc_hd__decap_12
X_0648_ _0196_ _0202_ _0191_ VGND VGND VPWR VPWR _0211_ sky130_fd_sc_hd__a21bo_1
XFILLER_0_12_166 VGND VGND VPWR VPWR sky130_ef_sc_hd__decap_12