* NGSPICE file created from stopwatch.ext - technology: sky130A

* Black-box entry subcircuit for sky130_fd_sc_hd__tapvpwrvgnd_1 abstract view
.subckt sky130_fd_sc_hd__tapvpwrvgnd_1 VGND VPWR
.ends

* Black-box entry subcircuit for sky130_ef_sc_hd__decap_12 abstract view
.subckt sky130_ef_sc_hd__decap_12 VGND VNB VPB VPWR
.ends

* Black-box entry subcircuit for sky130_fd_sc_hd__decap_8 abstract view
.subckt sky130_fd_sc_hd__decap_8 VGND VNB VPB VPWR
.ends

* Black-box entry subcircuit for sky130_fd_sc_hd__fill_1 abstract view
.subckt sky130_fd_sc_hd__fill_1 VGND VNB VPB VPWR
.ends

* Black-box entry subcircuit for sky130_fd_sc_hd__decap_3 abstract view
.subckt sky130_fd_sc_hd__decap_3 VGND VNB VPB VPWR
.ends

* Black-box entry subcircuit for sky130_fd_sc_hd__decap_6 abstract view
.subckt sky130_fd_sc_hd__decap_6 VGND VNB VPB VPWR
.ends

* Black-box entry subcircuit for sky130_fd_sc_hd__o21a_1 abstract view
.subckt sky130_fd_sc_hd__o21a_1 A1 A2 B1 VGND VNB VPB VPWR X
.ends

* Black-box entry subcircuit for sky130_fd_sc_hd__decap_4 abstract view
.subckt sky130_fd_sc_hd__decap_4 VGND VNB VPB VPWR
.ends

* Black-box entry subcircuit for sky130_fd_sc_hd__o21ai_1 abstract view
.subckt sky130_fd_sc_hd__o21ai_1 A1 A2 B1 VGND VNB VPB VPWR Y
.ends

* Black-box entry subcircuit for sky130_fd_sc_hd__clkbuf_8 abstract view
.subckt sky130_fd_sc_hd__clkbuf_8 A VGND VNB VPB VPWR X
.ends

* Black-box entry subcircuit for sky130_fd_sc_hd__a21o_1 abstract view
.subckt sky130_fd_sc_hd__a21o_1 A1 A2 B1 VGND VNB VPB VPWR X
.ends

* Black-box entry subcircuit for sky130_fd_sc_hd__nor2_1 abstract view
.subckt sky130_fd_sc_hd__nor2_1 A B VGND VNB VPB VPWR Y
.ends

* Black-box entry subcircuit for sky130_fd_sc_hd__fill_2 abstract view
.subckt sky130_fd_sc_hd__fill_2 VGND VNB VPB VPWR
.ends

* Black-box entry subcircuit for sky130_fd_sc_hd__o211a_1 abstract view
.subckt sky130_fd_sc_hd__o211a_1 A1 A2 B1 C1 VGND VNB VPB VPWR X
.ends

* Black-box entry subcircuit for sky130_fd_sc_hd__a22o_1 abstract view
.subckt sky130_fd_sc_hd__a22o_1 A1 A2 B1 B2 VGND VNB VPB VPWR X
.ends

* Black-box entry subcircuit for sky130_fd_sc_hd__dfrtp_1 abstract view
.subckt sky130_fd_sc_hd__dfrtp_1 CLK D RESET_B VGND VNB VPB VPWR Q
.ends

* Black-box entry subcircuit for sky130_fd_sc_hd__mux2_1 abstract view
.subckt sky130_fd_sc_hd__mux2_1 A0 A1 S VGND VNB VPB VPWR X
.ends

* Black-box entry subcircuit for sky130_fd_sc_hd__xnor2_1 abstract view
.subckt sky130_fd_sc_hd__xnor2_1 A B VGND VNB VPB VPWR Y
.ends

* Black-box entry subcircuit for sky130_fd_sc_hd__or2_1 abstract view
.subckt sky130_fd_sc_hd__or2_1 A B VGND VNB VPB VPWR X
.ends

* Black-box entry subcircuit for sky130_fd_sc_hd__dlygate4sd3_1 abstract view
.subckt sky130_fd_sc_hd__dlygate4sd3_1 A VGND VNB VPB VPWR X
.ends

* Black-box entry subcircuit for sky130_fd_sc_hd__and4bb_1 abstract view
.subckt sky130_fd_sc_hd__and4bb_1 A_N B_N C D VGND VNB VPB VPWR X
.ends

* Black-box entry subcircuit for sky130_fd_sc_hd__and2b_1 abstract view
.subckt sky130_fd_sc_hd__and2b_1 A_N B VGND VNB VPB VPWR X
.ends

* Black-box entry subcircuit for sky130_fd_sc_hd__clkbuf_4 abstract view
.subckt sky130_fd_sc_hd__clkbuf_4 A VGND VNB VPB VPWR X
.ends

* Black-box entry subcircuit for sky130_fd_sc_hd__or4_2 abstract view
.subckt sky130_fd_sc_hd__or4_2 A B C D VGND VNB VPB VPWR X
.ends

* Black-box entry subcircuit for sky130_fd_sc_hd__xor2_1 abstract view
.subckt sky130_fd_sc_hd__xor2_1 A B VGND VNB VPB VPWR X
.ends

* Black-box entry subcircuit for sky130_fd_sc_hd__a221o_1 abstract view
.subckt sky130_fd_sc_hd__a221o_1 A1 A2 B1 B2 C1 VGND VNB VPB VPWR X
.ends

* Black-box entry subcircuit for sky130_fd_sc_hd__clkbuf_1 abstract view
.subckt sky130_fd_sc_hd__clkbuf_1 A VGND VNB VPB VPWR X
.ends

* Black-box entry subcircuit for sky130_fd_sc_hd__nand2_2 abstract view
.subckt sky130_fd_sc_hd__nand2_2 A B VGND VNB VPB VPWR Y
.ends

* Black-box entry subcircuit for sky130_fd_sc_hd__inv_2 abstract view
.subckt sky130_fd_sc_hd__inv_2 A VGND VNB VPB VPWR Y
.ends

* Black-box entry subcircuit for sky130_fd_sc_hd__a31o_1 abstract view
.subckt sky130_fd_sc_hd__a31o_1 A1 A2 A3 B1 VGND VNB VPB VPWR X
.ends

* Black-box entry subcircuit for sky130_fd_sc_hd__buf_2 abstract view
.subckt sky130_fd_sc_hd__buf_2 A VGND VNB VPB VPWR X
.ends

* Black-box entry subcircuit for sky130_fd_sc_hd__o32a_1 abstract view
.subckt sky130_fd_sc_hd__o32a_1 A1 A2 A3 B1 B2 VGND VNB VPB VPWR X
.ends

* Black-box entry subcircuit for sky130_fd_sc_hd__or3b_2 abstract view
.subckt sky130_fd_sc_hd__or3b_2 A B C_N VGND VNB VPB VPWR X
.ends

* Black-box entry subcircuit for sky130_fd_sc_hd__and2_1 abstract view
.subckt sky130_fd_sc_hd__and2_1 A B VGND VNB VPB VPWR X
.ends

* Black-box entry subcircuit for sky130_fd_sc_hd__and4_1 abstract view
.subckt sky130_fd_sc_hd__and4_1 A B C D VGND VNB VPB VPWR X
.ends

* Black-box entry subcircuit for sky130_fd_sc_hd__a21bo_1 abstract view
.subckt sky130_fd_sc_hd__a21bo_1 A1 A2 B1_N VGND VNB VPB VPWR X
.ends

* Black-box entry subcircuit for sky130_fd_sc_hd__nand2_1 abstract view
.subckt sky130_fd_sc_hd__nand2_1 A B VGND VNB VPB VPWR Y
.ends

* Black-box entry subcircuit for sky130_fd_sc_hd__a32o_1 abstract view
.subckt sky130_fd_sc_hd__a32o_1 A1 A2 A3 B1 B2 VGND VNB VPB VPWR X
.ends

* Black-box entry subcircuit for sky130_fd_sc_hd__a211oi_1 abstract view
.subckt sky130_fd_sc_hd__a211oi_1 A1 A2 B1 C1 VGND VNB VPB VPWR Y
.ends

* Black-box entry subcircuit for sky130_fd_sc_hd__a21oi_1 abstract view
.subckt sky130_fd_sc_hd__a21oi_1 A1 A2 B1 VGND VNB VPB VPWR Y
.ends

* Black-box entry subcircuit for sky130_fd_sc_hd__nor2_4 abstract view
.subckt sky130_fd_sc_hd__nor2_4 A B VGND VNB VPB VPWR Y
.ends

* Black-box entry subcircuit for sky130_fd_sc_hd__o221a_1 abstract view
.subckt sky130_fd_sc_hd__o221a_1 A1 A2 B1 B2 C1 VGND VNB VPB VPWR X
.ends

* Black-box entry subcircuit for sky130_fd_sc_hd__dfrtp_4 abstract view
.subckt sky130_fd_sc_hd__dfrtp_4 CLK D RESET_B VGND VNB VPB VPWR Q
.ends

* Black-box entry subcircuit for sky130_fd_sc_hd__nor3b_1 abstract view
.subckt sky130_fd_sc_hd__nor3b_1 A B C_N VGND VNB VPB VPWR Y
.ends

* Black-box entry subcircuit for sky130_fd_sc_hd__buf_8 abstract view
.subckt sky130_fd_sc_hd__buf_8 A VGND VNB VPB VPWR X
.ends

* Black-box entry subcircuit for sky130_fd_sc_hd__or4_1 abstract view
.subckt sky130_fd_sc_hd__or4_1 A B C D VGND VNB VPB VPWR X
.ends

* Black-box entry subcircuit for sky130_fd_sc_hd__a31oi_4 abstract view
.subckt sky130_fd_sc_hd__a31oi_4 A1 A2 A3 B1 VGND VNB VPB VPWR Y
.ends

* Black-box entry subcircuit for sky130_fd_sc_hd__a211o_1 abstract view
.subckt sky130_fd_sc_hd__a211o_1 A1 A2 B1 C1 VGND VNB VPB VPWR X
.ends

* Black-box entry subcircuit for sky130_fd_sc_hd__buf_4 abstract view
.subckt sky130_fd_sc_hd__buf_4 A VGND VNB VPB VPWR X
.ends

* Black-box entry subcircuit for sky130_fd_sc_hd__a31o_2 abstract view
.subckt sky130_fd_sc_hd__a31o_2 A1 A2 A3 B1 VGND VNB VPB VPWR X
.ends

* Black-box entry subcircuit for sky130_fd_sc_hd__a31o_4 abstract view
.subckt sky130_fd_sc_hd__a31o_4 A1 A2 A3 B1 VGND VNB VPB VPWR X
.ends

* Black-box entry subcircuit for sky130_fd_sc_hd__or3b_1 abstract view
.subckt sky130_fd_sc_hd__or3b_1 A B C_N VGND VNB VPB VPWR X
.ends

* Black-box entry subcircuit for sky130_fd_sc_hd__or4b_1 abstract view
.subckt sky130_fd_sc_hd__or4b_1 A B C D_N VGND VNB VPB VPWR X
.ends

* Black-box entry subcircuit for sky130_fd_sc_hd__or3_1 abstract view
.subckt sky130_fd_sc_hd__or3_1 A B C VGND VNB VPB VPWR X
.ends

* Black-box entry subcircuit for sky130_fd_sc_hd__nor3_1 abstract view
.subckt sky130_fd_sc_hd__nor3_1 A B C VGND VNB VPB VPWR Y
.ends

* Black-box entry subcircuit for sky130_fd_sc_hd__clkbuf_16 abstract view
.subckt sky130_fd_sc_hd__clkbuf_16 A VGND VNB VPB VPWR X
.ends

* Black-box entry subcircuit for sky130_fd_sc_hd__nand4b_4 abstract view
.subckt sky130_fd_sc_hd__nand4b_4 A_N B C D VGND VNB VPB VPWR Y
.ends

* Black-box entry subcircuit for sky130_fd_sc_hd__nand3_1 abstract view
.subckt sky130_fd_sc_hd__nand3_1 A B C VGND VNB VPB VPWR Y
.ends

* Black-box entry subcircuit for sky130_fd_sc_hd__o22a_1 abstract view
.subckt sky130_fd_sc_hd__o22a_1 A1 A2 B1 B2 VGND VNB VPB VPWR X
.ends

* Black-box entry subcircuit for sky130_fd_sc_hd__buf_6 abstract view
.subckt sky130_fd_sc_hd__buf_6 A VGND VNB VPB VPWR X
.ends

* Black-box entry subcircuit for sky130_fd_sc_hd__dfstp_1 abstract view
.subckt sky130_fd_sc_hd__dfstp_1 CLK D SET_B VGND VNB VPB VPWR Q
.ends

* Black-box entry subcircuit for sky130_fd_sc_hd__and3_1 abstract view
.subckt sky130_fd_sc_hd__and3_1 A B C VGND VNB VPB VPWR X
.ends

* Black-box entry subcircuit for sky130_fd_sc_hd__or2b_2 abstract view
.subckt sky130_fd_sc_hd__or2b_2 A B_N VGND VNB VPB VPWR X
.ends

* Black-box entry subcircuit for sky130_fd_sc_hd__o211ai_2 abstract view
.subckt sky130_fd_sc_hd__o211ai_2 A1 A2 B1 C1 VGND VNB VPB VPWR Y
.ends

* Black-box entry subcircuit for sky130_fd_sc_hd__nor2_2 abstract view
.subckt sky130_fd_sc_hd__nor2_2 A B VGND VNB VPB VPWR Y
.ends

* Black-box entry subcircuit for sky130_fd_sc_hd__dfstp_2 abstract view
.subckt sky130_fd_sc_hd__dfstp_2 CLK D SET_B VGND VNB VPB VPWR Q
.ends

* Black-box entry subcircuit for sky130_fd_sc_hd__o2bb2a_2 abstract view
.subckt sky130_fd_sc_hd__o2bb2a_2 A1_N A2_N B1 B2 VGND VNB VPB VPWR X
.ends

* Black-box entry subcircuit for sky130_fd_sc_hd__nor3b_2 abstract view
.subckt sky130_fd_sc_hd__nor3b_2 A B C_N VGND VNB VPB VPWR Y
.ends

* Black-box entry subcircuit for sky130_fd_sc_hd__o21bai_4 abstract view
.subckt sky130_fd_sc_hd__o21bai_4 A1 A2 B1_N VGND VNB VPB VPWR Y
.ends

* Black-box entry subcircuit for sky130_fd_sc_hd__and4b_1 abstract view
.subckt sky130_fd_sc_hd__and4b_1 A_N B C D VGND VNB VPB VPWR X
.ends

* Black-box entry subcircuit for sky130_fd_sc_hd__nor3b_4 abstract view
.subckt sky130_fd_sc_hd__nor3b_4 A B C_N VGND VNB VPB VPWR Y
.ends

* Black-box entry subcircuit for sky130_fd_sc_hd__or4bb_1 abstract view
.subckt sky130_fd_sc_hd__or4bb_1 A B C_N D_N VGND VNB VPB VPWR X
.ends

* Black-box entry subcircuit for sky130_fd_sc_hd__nand3_2 abstract view
.subckt sky130_fd_sc_hd__nand3_2 A B C VGND VNB VPB VPWR Y
.ends

* Black-box entry subcircuit for sky130_fd_sc_hd__a41o_1 abstract view
.subckt sky130_fd_sc_hd__a41o_1 A1 A2 A3 A4 B1 VGND VNB VPB VPWR X
.ends

* Black-box entry subcircuit for sky130_fd_sc_hd__buf_1 abstract view
.subckt sky130_fd_sc_hd__buf_1 A VGND VNB VPB VPWR X
.ends

* Black-box entry subcircuit for sky130_fd_sc_hd__dfrtp_2 abstract view
.subckt sky130_fd_sc_hd__dfrtp_2 CLK D RESET_B VGND VNB VPB VPWR Q
.ends

* Black-box entry subcircuit for sky130_fd_sc_hd__nor2b_2 abstract view
.subckt sky130_fd_sc_hd__nor2b_2 A B_N VGND VNB VPB VPWR Y
.ends

* Black-box entry subcircuit for sky130_fd_sc_hd__o311a_1 abstract view
.subckt sky130_fd_sc_hd__o311a_1 A1 A2 A3 B1 C1 VGND VNB VPB VPWR X
.ends

* Black-box entry subcircuit for sky130_fd_sc_hd__o21ba_1 abstract view
.subckt sky130_fd_sc_hd__o21ba_1 A1 A2 B1_N VGND VNB VPB VPWR X
.ends

* Black-box entry subcircuit for sky130_fd_sc_hd__a221o_2 abstract view
.subckt sky130_fd_sc_hd__a221o_2 A1 A2 B1 B2 C1 VGND VNB VPB VPWR X
.ends

* Black-box entry subcircuit for sky130_fd_sc_hd__o21bai_1 abstract view
.subckt sky130_fd_sc_hd__o21bai_1 A1 A2 B1_N VGND VNB VPB VPWR Y
.ends

* Black-box entry subcircuit for sky130_fd_sc_hd__xnor2_2 abstract view
.subckt sky130_fd_sc_hd__xnor2_2 A B VGND VNB VPB VPWR Y
.ends

* Black-box entry subcircuit for sky130_fd_sc_hd__o41a_1 abstract view
.subckt sky130_fd_sc_hd__o41a_1 A1 A2 A3 A4 B1 VGND VNB VPB VPWR X
.ends

* Black-box entry subcircuit for sky130_fd_sc_hd__clkbuf_2 abstract view
.subckt sky130_fd_sc_hd__clkbuf_2 A VGND VNB VPB VPWR X
.ends

* Black-box entry subcircuit for sky130_fd_sc_hd__o2bb2a_1 abstract view
.subckt sky130_fd_sc_hd__o2bb2a_1 A1_N A2_N B1 B2 VGND VNB VPB VPWR X
.ends

* Black-box entry subcircuit for sky130_fd_sc_hd__or3_4 abstract view
.subckt sky130_fd_sc_hd__or3_4 A B C VGND VNB VPB VPWR X
.ends

* Black-box entry subcircuit for sky130_fd_sc_hd__nor2_8 abstract view
.subckt sky130_fd_sc_hd__nor2_8 A B VGND VNB VPB VPWR Y
.ends

* Black-box entry subcircuit for sky130_fd_sc_hd__nand2b_4 abstract view
.subckt sky130_fd_sc_hd__nand2b_4 A_N B VGND VNB VPB VPWR Y
.ends

* Black-box entry subcircuit for sky130_fd_sc_hd__and3b_1 abstract view
.subckt sky130_fd_sc_hd__and3b_1 A_N B C VGND VNB VPB VPWR X
.ends

* Black-box entry subcircuit for sky130_fd_sc_hd__a21oi_4 abstract view
.subckt sky130_fd_sc_hd__a21oi_4 A1 A2 B1 VGND VNB VPB VPWR Y
.ends

* Black-box entry subcircuit for sky130_fd_sc_hd__o21ai_2 abstract view
.subckt sky130_fd_sc_hd__o21ai_2 A1 A2 B1 VGND VNB VPB VPWR Y
.ends

* Black-box entry subcircuit for sky130_fd_sc_hd__a22oi_2 abstract view
.subckt sky130_fd_sc_hd__a22oi_2 A1 A2 B1 B2 VGND VNB VPB VPWR Y
.ends

* Black-box entry subcircuit for sky130_fd_sc_hd__or2b_1 abstract view
.subckt sky130_fd_sc_hd__or2b_1 A B_N VGND VNB VPB VPWR X
.ends

* Black-box entry subcircuit for sky130_fd_sc_hd__or2_2 abstract view
.subckt sky130_fd_sc_hd__or2_2 A B VGND VNB VPB VPWR X
.ends

* Black-box entry subcircuit for sky130_fd_sc_hd__clkinv_4 abstract view
.subckt sky130_fd_sc_hd__clkinv_4 A VGND VNB VPB VPWR Y
.ends

* Black-box entry subcircuit for sky130_fd_sc_hd__o21ai_4 abstract view
.subckt sky130_fd_sc_hd__o21ai_4 A1 A2 B1 VGND VNB VPB VPWR Y
.ends

* Black-box entry subcircuit for sky130_fd_sc_hd__nand2b_2 abstract view
.subckt sky130_fd_sc_hd__nand2b_2 A_N B VGND VNB VPB VPWR Y
.ends

* Black-box entry subcircuit for sky130_fd_sc_hd__a2bb2o_1 abstract view
.subckt sky130_fd_sc_hd__a2bb2o_1 A1_N A2_N B1 B2 VGND VNB VPB VPWR X
.ends

* Black-box entry subcircuit for sky130_fd_sc_hd__nand2_8 abstract view
.subckt sky130_fd_sc_hd__nand2_8 A B VGND VNB VPB VPWR Y
.ends

* Black-box entry subcircuit for sky130_fd_sc_hd__a311o_1 abstract view
.subckt sky130_fd_sc_hd__a311o_1 A1 A2 A3 B1 C1 VGND VNB VPB VPWR X
.ends

* Black-box entry subcircuit for sky130_fd_sc_hd__or4bb_4 abstract view
.subckt sky130_fd_sc_hd__or4bb_4 A B C_N D_N VGND VNB VPB VPWR X
.ends

* Black-box entry subcircuit for sky130_fd_sc_hd__and2_2 abstract view
.subckt sky130_fd_sc_hd__and2_2 A B VGND VNB VPB VPWR X
.ends

* Black-box entry subcircuit for sky130_fd_sc_hd__diode_2 abstract view
.subckt sky130_fd_sc_hd__diode_2 DIODE VGND VNB VPB VPWR
.ends

* Black-box entry subcircuit for sky130_fd_sc_hd__a221oi_1 abstract view
.subckt sky130_fd_sc_hd__a221oi_1 A1 A2 B1 B2 C1 VGND VNB VPB VPWR Y
.ends

* Black-box entry subcircuit for sky130_fd_sc_hd__o31a_1 abstract view
.subckt sky130_fd_sc_hd__o31a_1 A1 A2 A3 B1 VGND VNB VPB VPWR X
.ends

* Black-box entry subcircuit for sky130_fd_sc_hd__o211ai_1 abstract view
.subckt sky130_fd_sc_hd__o211ai_1 A1 A2 B1 C1 VGND VNB VPB VPWR Y
.ends

.subckt stopwatch clk nrst out_0[0] out_0[1] out_0[2] out_0[3] out_0[4] out_0[5] out_0[6]
+ out_1[0] out_1[1] out_1[2] out_1[3] out_1[4] out_1[5] out_1[6] out_2[0] out_2[1]
+ out_2[2] out_2[3] out_2[4] out_2[5] out_2[6] out_3[0] out_3[1] out_3[2] out_3[3]
+ out_3[4] out_3[5] out_3[6] pb_0 pb_1 time_done vccd1 vssd1
XTAP_177 vssd1 vccd1 sky130_fd_sc_hd__tapvpwrvgnd_1
XTAP_188 vssd1 vccd1 sky130_fd_sc_hd__tapvpwrvgnd_1
XTAP_199 vssd1 vccd1 sky130_fd_sc_hd__tapvpwrvgnd_1
XFILLER_0_43_92 vssd1 vssd1 vccd1 vccd1 sky130_ef_sc_hd__decap_12
XFILLER_0_17_255 vssd1 vssd1 vccd1 vccd1 sky130_fd_sc_hd__decap_8
XFILLER_0_23_203 vssd1 vssd1 vccd1 vccd1 sky130_fd_sc_hd__fill_1
XFILLER_0_23_225 vssd1 vssd1 vccd1 vccd1 sky130_fd_sc_hd__decap_3
XFILLER_0_48_15 vssd1 vssd1 vccd1 vccd1 sky130_fd_sc_hd__decap_6
XFILLER_0_31_291 vssd1 vssd1 vccd1 vccd1 sky130_ef_sc_hd__decap_12
XFILLER_0_3_39 vssd1 vssd1 vccd1 vccd1 sky130_ef_sc_hd__decap_12
X_0985_ _0353_ _0440_ _0327_ vssd1 vssd1 vccd1 vccd1 _0441_ sky130_fd_sc_hd__o21a_1
XFILLER_0_49_133 vssd1 vssd1 vccd1 vccd1 sky130_fd_sc_hd__fill_1
XFILLER_0_18_29 vssd1 vssd1 vccd1 vccd1 sky130_fd_sc_hd__decap_4
XFILLER_0_50_27 vssd1 vssd1 vccd1 vccd1 sky130_fd_sc_hd__fill_1
X_0770_ _0264_ _0265_ _0212_ vssd1 vssd1 vccd1 vccd1 _0266_ sky130_fd_sc_hd__o21ai_1
XFILLER_0_46_103 vssd1 vssd1 vccd1 vccd1 sky130_fd_sc_hd__decap_8
Xclkbuf_4_12_0_clk clknet_0_clk vssd1 vssd1 vccd1 vccd1 clknet_4_12_0_clk sky130_fd_sc_hd__clkbuf_8
XFILLER_0_6_277 vssd1 vssd1 vccd1 vccd1 sky130_ef_sc_hd__decap_12
XFILLER_0_6_233 vssd1 vssd1 vccd1 vccd1 sky130_ef_sc_hd__decap_12
X_0968_ TIM.cnt\[5\] _0423_ _0360_ vssd1 vssd1 vccd1 vccd1 _0429_ sky130_fd_sc_hd__a21o_1
XFILLER_0_40_93 vssd1 vssd1 vccd1 vccd1 sky130_fd_sc_hd__decap_3
X_0899_ TIM.cnt\[9\] _0327_ vssd1 vssd1 vccd1 vccd1 _0374_ sky130_fd_sc_hd__nor2_1
XFILLER_0_10_250 vssd1 vssd1 vccd1 vccd1 sky130_fd_sc_hd__fill_2
XFILLER_0_45_180 vssd1 vssd1 vccd1 vccd1 sky130_ef_sc_hd__decap_12
XFILLER_0_45_27 vssd1 vssd1 vccd1 vccd1 sky130_ef_sc_hd__decap_12
XFILLER_0_9_27 vssd1 vssd1 vccd1 vccd1 sky130_ef_sc_hd__decap_12
X_0822_ _0071_ MEM.mem1\[6\] _0069_ _0310_ vssd1 vssd1 vccd1 vccd1 _0311_ sky130_fd_sc_hd__o211a_1
X_0684_ CTR.time_out\[2\] _0233_ _0237_ net50 vssd1 vssd1 vccd1 vccd1 MEM.next_mem1\[2\]
+ sky130_fd_sc_hd__a22o_1
XFILLER_0_3_225 vssd1 vssd1 vccd1 vccd1 sky130_ef_sc_hd__decap_12
XFILLER_0_10_85 vssd1 vssd1 vccd1 vccd1 sky130_ef_sc_hd__decap_12
X_0753_ CTR.time_out\[6\] _0253_ _0254_ net112 vssd1 vssd1 vccd1 vccd1 MEM.next_mem5\[6\]
+ sky130_fd_sc_hd__a22o_1
X_1098_ clknet_4_0_0_clk MEM.next_mem4\[7\] net35 vssd1 vssd1 vccd1 vccd1 MEM.mem4\[7\]
+ sky130_fd_sc_hd__dfrtp_1
X_1021_ clknet_4_5_0_clk net3 net37 vssd1 vssd1 vccd1 vccd1 e2.intermediate sky130_fd_sc_hd__dfrtp_1
X_0805_ _0290_ _0293_ _0125_ vssd1 vssd1 vccd1 vccd1 _0294_ sky130_fd_sc_hd__mux2_1
XFILLER_0_16_139 vssd1 vssd1 vccd1 vccd1 sky130_fd_sc_hd__fill_1
XFILLER_0_21_40 vssd1 vssd1 vccd1 vccd1 sky130_ef_sc_hd__decap_12
X_0598_ net115 _0165_ vssd1 vssd1 vccd1 vccd1 _0008_ sky130_fd_sc_hd__xnor2_1
X_0736_ CTR.time_out\[5\] _0249_ _0250_ net70 vssd1 vssd1 vccd1 vccd1 MEM.next_mem4\[5\]
+ sky130_fd_sc_hd__a22o_1
X_0667_ _0215_ _0221_ vssd1 vssd1 vccd1 vccd1 _0227_ sky130_fd_sc_hd__or2_1
XFILLER_0_24_194 vssd1 vssd1 vccd1 vccd1 sky130_fd_sc_hd__fill_2
XFILLER_0_34_3 vssd1 vssd1 vccd1 vccd1 sky130_ef_sc_hd__decap_12
XFILLER_0_15_161 vssd1 vssd1 vccd1 vccd1 sky130_fd_sc_hd__fill_2
XFILLER_0_22_109 vssd1 vssd1 vccd1 vccd1 sky130_fd_sc_hd__decap_4
Xhold74 CLKDIV.count\[17\] vssd1 vssd1 vccd1 vccd1 net115 sky130_fd_sc_hd__dlygate4sd3_1
Xhold52 MEM.mem2\[1\] vssd1 vssd1 vccd1 vccd1 net93 sky130_fd_sc_hd__dlygate4sd3_1
Xhold41 MEM.mem5\[7\] vssd1 vssd1 vccd1 vccd1 net82 sky130_fd_sc_hd__dlygate4sd3_1
Xhold63 MEM.mem4\[3\] vssd1 vssd1 vccd1 vccd1 net104 sky130_fd_sc_hd__dlygate4sd3_1
Xhold30 MEM.mem5\[11\] vssd1 vssd1 vccd1 vccd1 net71 sky130_fd_sc_hd__dlygate4sd3_1
Xhold85 _0138_ vssd1 vssd1 vccd1 vccd1 net126 sky130_fd_sc_hd__dlygate4sd3_1
XFILLER_0_38_220 vssd1 vssd1 vccd1 vccd1 sky130_ef_sc_hd__decap_12
Xhold96 TIM.cnt\[1\] vssd1 vssd1 vccd1 vccd1 net137 sky130_fd_sc_hd__dlygate4sd3_1
XFILLER_0_38_275 vssd1 vssd1 vccd1 vccd1 sky130_ef_sc_hd__decap_12
XTAP_348 vssd1 vccd1 sky130_fd_sc_hd__tapvpwrvgnd_1
XTAP_337 vssd1 vccd1 sky130_fd_sc_hd__tapvpwrvgnd_1
XTAP_326 vssd1 vccd1 sky130_fd_sc_hd__tapvpwrvgnd_1
XTAP_315 vssd1 vccd1 sky130_fd_sc_hd__tapvpwrvgnd_1
XTAP_304 vssd1 vccd1 sky130_fd_sc_hd__tapvpwrvgnd_1
X_0521_ _0072_ _0070_ MEM.mem3\[7\] _0073_ vssd1 vssd1 vccd1 vccd1 _0114_ sky130_fd_sc_hd__and4bb_1
XTAP_359 vssd1 vccd1 sky130_fd_sc_hd__tapvpwrvgnd_1
X_1004_ _0388_ _0390_ vssd1 vssd1 vccd1 vccd1 _0454_ sky130_fd_sc_hd__and2b_1
XFILLER_0_8_147 vssd1 vssd1 vccd1 vccd1 sky130_ef_sc_hd__decap_12
XFILLER_0_32_72 vssd1 vssd1 vccd1 vccd1 sky130_fd_sc_hd__decap_4
XFILLER_0_44_289 vssd1 vssd1 vccd1 vccd1 sky130_ef_sc_hd__decap_12
XFILLER_0_12_120 vssd1 vssd1 vccd1 vccd1 sky130_fd_sc_hd__decap_8
X_0719_ _0189_ _0246_ _0247_ net77 vssd1 vssd1 vccd1 vccd1 MEM.next_mem3\[3\] sky130_fd_sc_hd__a22o_1
XFILLER_0_50_215 vssd1 vssd1 vccd1 vccd1 sky130_ef_sc_hd__decap_12
XFILLER_0_35_278 vssd1 vssd1 vccd1 vccd1 sky130_fd_sc_hd__fill_2
XFILLER_0_35_201 vssd1 vssd1 vccd1 vccd1 sky130_fd_sc_hd__decap_6
XFILLER_0_50_248 vssd1 vssd1 vccd1 vccd1 sky130_fd_sc_hd__decap_4
Xoutput20 net20 vssd1 vssd1 vccd1 vccd1 out_2[2] sky130_fd_sc_hd__clkbuf_4
Xoutput31 net31 vssd1 vssd1 vccd1 vccd1 out_3[6] sky130_fd_sc_hd__clkbuf_4
Xoutput7 net7 vssd1 vssd1 vccd1 vccd1 out_0[3] sky130_fd_sc_hd__clkbuf_4
XFILLER_0_41_237 vssd1 vssd1 vccd1 vccd1 sky130_ef_sc_hd__decap_12
XTAP_145 vssd1 vccd1 sky130_fd_sc_hd__tapvpwrvgnd_1
XTAP_134 vssd1 vccd1 sky130_fd_sc_hd__tapvpwrvgnd_1
XTAP_123 vssd1 vccd1 sky130_fd_sc_hd__tapvpwrvgnd_1
XTAP_112 vssd1 vccd1 sky130_fd_sc_hd__tapvpwrvgnd_1
XTAP_156 vssd1 vccd1 sky130_fd_sc_hd__tapvpwrvgnd_1
X_0504_ _0094_ _0095_ _0096_ _0097_ vssd1 vssd1 vccd1 vccd1 _0098_ sky130_fd_sc_hd__or4_2
XTAP_167 vssd1 vccd1 sky130_fd_sc_hd__tapvpwrvgnd_1
XTAP_178 vssd1 vccd1 sky130_fd_sc_hd__tapvpwrvgnd_1
XTAP_189 vssd1 vccd1 sky130_fd_sc_hd__tapvpwrvgnd_1
XFILLER_0_4_194 vssd1 vssd1 vccd1 vccd1 sky130_fd_sc_hd__fill_2
XFILLER_0_2_109 vssd1 vssd1 vccd1 vccd1 sky130_ef_sc_hd__decap_12
XFILLER_0_31_281 vssd1 vssd1 vccd1 vccd1 sky130_fd_sc_hd__decap_4
X_0984_ TIM.cnt\[0\] CLKDIV.secpulse vssd1 vssd1 vccd1 vccd1 _0440_ sky130_fd_sc_hd__xor2_1
XFILLER_0_14_215 vssd1 vssd1 vccd1 vccd1 sky130_ef_sc_hd__decap_12
XFILLER_0_11_218 vssd1 vssd1 vccd1 vccd1 sky130_fd_sc_hd__decap_6
XFILLER_0_6_289 vssd1 vssd1 vccd1 vccd1 sky130_ef_sc_hd__decap_12
XFILLER_0_6_245 vssd1 vssd1 vccd1 vccd1 sky130_fd_sc_hd__decap_6
X_0967_ TIM.cnt\[4\] _0358_ _0406_ _0428_ vssd1 vssd1 vccd1 vccd1 _0041_ sky130_fd_sc_hd__a22o_1
X_0898_ net136 _0362_ _0364_ _0373_ vssd1 vssd1 vccd1 vccd1 _0027_ sky130_fd_sc_hd__a22o_1
XFILLER_0_4_83 vssd1 vssd1 vccd1 vccd1 sky130_fd_sc_hd__fill_1
XFILLER_0_37_148 vssd1 vssd1 vccd1 vccd1 sky130_fd_sc_hd__fill_1
XFILLER_0_45_192 vssd1 vssd1 vccd1 vccd1 sky130_ef_sc_hd__decap_12
XFILLER_0_45_39 vssd1 vssd1 vccd1 vccd1 sky130_ef_sc_hd__decap_12
X_0752_ CTR.time_out\[5\] _0253_ _0254_ net75 vssd1 vssd1 vccd1 vccd1 MEM.next_mem5\[5\]
+ sky130_fd_sc_hd__a22o_1
XFILLER_0_9_39 vssd1 vssd1 vccd1 vccd1 sky130_fd_sc_hd__decap_8
X_0821_ MEM.mem4\[6\] _0078_ _0079_ MEM.mem3\[6\] _0309_ vssd1 vssd1 vccd1 vccd1 _0310_
+ sky130_fd_sc_hd__a221o_1
XFILLER_0_51_184 vssd1 vssd1 vccd1 vccd1 sky130_ef_sc_hd__decap_12
X_0683_ _0200_ _0233_ _0237_ net87 vssd1 vssd1 vccd1 vccd1 MEM.next_mem1\[1\] sky130_fd_sc_hd__a22o_1
XFILLER_0_3_237 vssd1 vssd1 vccd1 vccd1 sky130_ef_sc_hd__decap_12
XFILLER_0_10_97 vssd1 vssd1 vccd1 vccd1 sky130_ef_sc_hd__decap_12
X_1097_ clknet_4_1_0_clk MEM.next_mem4\[6\] net35 vssd1 vssd1 vccd1 vccd1 MEM.mem4\[6\]
+ sky130_fd_sc_hd__dfrtp_1
XFILLER_0_51_93 vssd1 vssd1 vccd1 vccd1 sky130_fd_sc_hd__fill_1
XFILLER_0_33_151 vssd1 vssd1 vccd1 vccd1 sky130_ef_sc_hd__decap_12
X_1020_ clknet_4_5_0_clk net44 net38 vssd1 vssd1 vccd1 vccd1 e2.edge_d sky130_fd_sc_hd__dfrtp_1
Xclkbuf_4_11_0_clk clknet_0_clk vssd1 vssd1 vccd1 vccd1 clknet_4_11_0_clk sky130_fd_sc_hd__clkbuf_8
X_0735_ CTR.time_out\[4\] _0249_ _0250_ net107 vssd1 vssd1 vccd1 vccd1 MEM.next_mem4\[4\]
+ sky130_fd_sc_hd__a22o_1
X_0804_ _0111_ _0292_ _0133_ vssd1 vssd1 vccd1 vccd1 _0293_ sky130_fd_sc_hd__mux2_1
XFILLER_0_16_107 vssd1 vssd1 vccd1 vccd1 sky130_ef_sc_hd__decap_12
XFILLER_0_21_52 vssd1 vssd1 vccd1 vccd1 sky130_fd_sc_hd__decap_4
X_0597_ _0167_ vssd1 vssd1 vccd1 vccd1 _0007_ sky130_fd_sc_hd__clkbuf_1
X_0666_ _0226_ vssd1 vssd1 vccd1 vccd1 net13 sky130_fd_sc_hd__clkbuf_1
XFILLER_0_1_51 vssd1 vssd1 vccd1 vccd1 sky130_fd_sc_hd__decap_4
XFILLER_0_27_3 vssd1 vssd1 vccd1 vccd1 sky130_ef_sc_hd__decap_12
Xhold75 CLKDIV.count\[11\] vssd1 vssd1 vccd1 vccd1 net116 sky130_fd_sc_hd__dlygate4sd3_1
Xhold64 CLKDIV.count\[14\] vssd1 vssd1 vccd1 vccd1 net105 sky130_fd_sc_hd__dlygate4sd3_1
Xhold53 MEM.mem2\[5\] vssd1 vssd1 vccd1 vccd1 net94 sky130_fd_sc_hd__dlygate4sd3_1
Xhold42 MEM.mem2\[10\] vssd1 vssd1 vccd1 vccd1 net83 sky130_fd_sc_hd__dlygate4sd3_1
Xhold86 TIM.cnt\[9\] vssd1 vssd1 vccd1 vccd1 net127 sky130_fd_sc_hd__dlygate4sd3_1
Xhold20 MEM.mem5\[9\] vssd1 vssd1 vccd1 vccd1 net61 sky130_fd_sc_hd__dlygate4sd3_1
Xhold31 MEM.mem4\[0\] vssd1 vssd1 vccd1 vccd1 net72 sky130_fd_sc_hd__dlygate4sd3_1
XFILLER_0_42_29 vssd1 vssd1 vccd1 vccd1 sky130_fd_sc_hd__decap_6
XFILLER_0_38_232 vssd1 vssd1 vccd1 vccd1 sky130_ef_sc_hd__decap_12
XFILLER_0_38_287 vssd1 vssd1 vccd1 vccd1 sky130_ef_sc_hd__decap_12
XTAP_349 vssd1 vccd1 sky130_fd_sc_hd__tapvpwrvgnd_1
XTAP_338 vssd1 vccd1 sky130_fd_sc_hd__tapvpwrvgnd_1
XTAP_327 vssd1 vccd1 sky130_fd_sc_hd__tapvpwrvgnd_1
XTAP_316 vssd1 vccd1 sky130_fd_sc_hd__tapvpwrvgnd_1
XTAP_305 vssd1 vccd1 sky130_fd_sc_hd__tapvpwrvgnd_1
XFILLER_0_6_29 vssd1 vssd1 vccd1 vccd1 sky130_fd_sc_hd__fill_2
X_0520_ _0092_ _0093_ vssd1 vssd1 vccd1 vccd1 _0113_ sky130_fd_sc_hd__nand2_2
XFILLER_0_21_165 vssd1 vssd1 vccd1 vccd1 sky130_fd_sc_hd__decap_3
XFILLER_0_21_187 vssd1 vssd1 vccd1 vccd1 sky130_fd_sc_hd__fill_1
X_1003_ _0452_ vssd1 vssd1 vccd1 vccd1 _0453_ sky130_fd_sc_hd__inv_2
XFILLER_0_16_74 vssd1 vssd1 vccd1 vccd1 sky130_fd_sc_hd__decap_8
XFILLER_0_16_85 vssd1 vssd1 vccd1 vccd1 sky130_fd_sc_hd__decap_8
XFILLER_0_44_202 vssd1 vssd1 vccd1 vccd1 sky130_ef_sc_hd__decap_12
XFILLER_0_8_159 vssd1 vssd1 vccd1 vccd1 sky130_ef_sc_hd__decap_12
XFILLER_0_12_132 vssd1 vssd1 vccd1 vccd1 sky130_fd_sc_hd__decap_3
XFILLER_0_12_154 vssd1 vssd1 vccd1 vccd1 sky130_ef_sc_hd__decap_12
X_0718_ CTR.time_out\[2\] _0246_ _0247_ net76 vssd1 vssd1 vccd1 vccd1 MEM.next_mem3\[2\]
+ sky130_fd_sc_hd__a22o_1
X_0649_ _0069_ _0193_ _0194_ _0195_ vssd1 vssd1 vccd1 vccd1 _0212_ sky130_fd_sc_hd__a31o_1
XFILLER_0_50_227 vssd1 vssd1 vccd1 vccd1 sky130_ef_sc_hd__decap_12
Xoutput8 net8 vssd1 vssd1 vccd1 vccd1 out_0[4] sky130_fd_sc_hd__clkbuf_4
Xoutput21 net21 vssd1 vssd1 vccd1 vccd1 out_2[3] sky130_fd_sc_hd__buf_2
Xoutput32 net32 vssd1 vssd1 vccd1 vccd1 time_done sky130_fd_sc_hd__buf_2
Xoutput10 net10 vssd1 vssd1 vccd1 vccd1 out_0[6] sky130_fd_sc_hd__buf_2
XFILLER_0_41_249 vssd1 vssd1 vccd1 vccd1 sky130_ef_sc_hd__decap_12
XFILLER_0_26_268 vssd1 vssd1 vccd1 vccd1 sky130_fd_sc_hd__decap_4
XTAP_146 vssd1 vccd1 sky130_fd_sc_hd__tapvpwrvgnd_1
XTAP_135 vssd1 vccd1 sky130_fd_sc_hd__tapvpwrvgnd_1
XTAP_124 vssd1 vccd1 sky130_fd_sc_hd__tapvpwrvgnd_1
XTAP_113 vssd1 vccd1 sky130_fd_sc_hd__tapvpwrvgnd_1
XTAP_157 vssd1 vccd1 sky130_fd_sc_hd__tapvpwrvgnd_1
X_0503_ _0072_ _0073_ MEM.mem5\[10\] _0070_ vssd1 vssd1 vccd1 vccd1 _0097_ sky130_fd_sc_hd__a31o_1
XTAP_168 vssd1 vccd1 sky130_fd_sc_hd__tapvpwrvgnd_1
XTAP_179 vssd1 vccd1 sky130_fd_sc_hd__tapvpwrvgnd_1
XFILLER_0_7_50 vssd1 vssd1 vccd1 vccd1 sky130_fd_sc_hd__decap_6
XFILLER_0_2_9 vssd1 vssd1 vccd1 vccd1 sky130_fd_sc_hd__decap_3
X_0983_ _0071_ _0340_ _0076_ _0439_ vssd1 vssd1 vccd1 vccd1 _0046_ sky130_fd_sc_hd__a31o_1
XFILLER_0_14_227 vssd1 vssd1 vccd1 vccd1 sky130_fd_sc_hd__decap_3
XFILLER_0_1_187 vssd1 vssd1 vccd1 vccd1 sky130_ef_sc_hd__decap_12
XFILLER_0_9_221 vssd1 vssd1 vccd1 vccd1 sky130_fd_sc_hd__decap_3
XFILLER_0_9_298 vssd1 vssd1 vccd1 vccd1 sky130_fd_sc_hd__fill_1
XFILLER_0_50_29 vssd1 vssd1 vccd1 vccd1 sky130_ef_sc_hd__decap_12
XFILLER_0_48_190 vssd1 vssd1 vccd1 vccd1 sky130_fd_sc_hd__decap_6
XFILLER_0_24_85 vssd1 vssd1 vccd1 vccd1 sky130_fd_sc_hd__decap_3
X_0897_ _0371_ _0372_ vssd1 vssd1 vccd1 vccd1 _0373_ sky130_fd_sc_hd__nor2_1
X_0966_ _0360_ _0424_ _0425_ _0427_ _0327_ vssd1 vssd1 vccd1 vccd1 _0428_ sky130_fd_sc_hd__o32a_1
XFILLER_0_10_263 vssd1 vssd1 vccd1 vccd1 sky130_fd_sc_hd__decap_3
XFILLER_0_10_274 vssd1 vssd1 vccd1 vccd1 sky130_fd_sc_hd__fill_2
XFILLER_0_45_160 vssd1 vssd1 vccd1 vccd1 sky130_fd_sc_hd__decap_8
X_0751_ CTR.time_out\[4\] _0253_ _0254_ net89 vssd1 vssd1 vccd1 vccd1 MEM.next_mem5\[4\]
+ sky130_fd_sc_hd__a22o_1
X_0820_ MEM.mem5\[6\] _0075_ _0076_ MEM.mem2\[6\] _0070_ vssd1 vssd1 vccd1 vccd1 _0309_
+ sky130_fd_sc_hd__a221o_1
X_0682_ _0229_ _0233_ _0237_ net57 vssd1 vssd1 vccd1 vccd1 MEM.next_mem1\[0\] sky130_fd_sc_hd__a22o_1
XFILLER_0_35_84 vssd1 vssd1 vccd1 vccd1 sky130_fd_sc_hd__fill_2
XFILLER_0_29_7 vssd1 vssd1 vccd1 vccd1 sky130_fd_sc_hd__fill_1
X_1096_ clknet_4_6_0_clk MEM.next_mem4\[5\] net38 vssd1 vssd1 vccd1 vccd1 MEM.mem4\[5\]
+ sky130_fd_sc_hd__dfrtp_1
XFILLER_0_51_83 vssd1 vssd1 vccd1 vccd1 sky130_fd_sc_hd__fill_1
XFILLER_0_42_141 vssd1 vssd1 vccd1 vccd1 sky130_fd_sc_hd__decap_8
X_0949_ _0350_ _0412_ _0348_ vssd1 vssd1 vccd1 vccd1 _0413_ sky130_fd_sc_hd__a21o_1
XFILLER_0_33_163 vssd1 vssd1 vccd1 vccd1 sky130_fd_sc_hd__decap_4
XFILLER_0_18_160 vssd1 vssd1 vccd1 vccd1 sky130_fd_sc_hd__fill_1
XFILLER_0_16_119 vssd1 vssd1 vccd1 vccd1 sky130_ef_sc_hd__decap_12
X_0665_ _0218_ _0220_ _0225_ vssd1 vssd1 vccd1 vccd1 _0226_ sky130_fd_sc_hd__or3b_2
X_0803_ _0127_ _0290_ _0291_ vssd1 vssd1 vccd1 vccd1 _0292_ sky130_fd_sc_hd__o21ai_1
XFILLER_0_21_64 vssd1 vssd1 vccd1 vccd1 sky130_ef_sc_hd__decap_12
XFILLER_0_24_141 vssd1 vssd1 vccd1 vccd1 sky130_fd_sc_hd__decap_3
X_0734_ _0189_ _0249_ _0250_ net104 vssd1 vssd1 vccd1 vccd1 MEM.next_mem4\[3\] sky130_fd_sc_hd__a22o_1
X_0596_ _0165_ _0166_ vssd1 vssd1 vccd1 vccd1 _0167_ sky130_fd_sc_hd__and2_1
XFILLER_0_47_222 vssd1 vssd1 vccd1 vccd1 sky130_fd_sc_hd__fill_2
XFILLER_0_46_83 vssd1 vssd1 vccd1 vccd1 sky130_fd_sc_hd__fill_1
X_1079_ clknet_4_6_0_clk MEM.next_mem5\[0\] net38 vssd1 vssd1 vccd1 vccd1 MEM.mem5\[0\]
+ sky130_fd_sc_hd__dfrtp_1
XFILLER_0_47_277 vssd1 vssd1 vccd1 vccd1 sky130_fd_sc_hd__decap_3
Xhold65 _0162_ vssd1 vssd1 vccd1 vccd1 net106 sky130_fd_sc_hd__dlygate4sd3_1
Xhold32 MEM.mem2\[8\] vssd1 vssd1 vccd1 vccd1 net73 sky130_fd_sc_hd__dlygate4sd3_1
Xhold43 MEM.mem3\[10\] vssd1 vssd1 vccd1 vccd1 net84 sky130_fd_sc_hd__dlygate4sd3_1
Xhold87 TIM.cnt\[10\] vssd1 vssd1 vccd1 vccd1 net128 sky130_fd_sc_hd__dlygate4sd3_1
Xhold10 MEM.mem1\[9\] vssd1 vssd1 vccd1 vccd1 net51 sky130_fd_sc_hd__dlygate4sd3_1
Xhold76 net32 vssd1 vssd1 vccd1 vccd1 net117 sky130_fd_sc_hd__dlygate4sd3_1
Xhold21 MEM.mem3\[6\] vssd1 vssd1 vccd1 vccd1 net62 sky130_fd_sc_hd__dlygate4sd3_1