* NGSPICE file created from synth.ext - technology: sky130A

* Black-box entry subcircuit for sky130_fd_sc_hd__tapvpwrvgnd_1 abstract view
.subckt sky130_fd_sc_hd__tapvpwrvgnd_1 VGND VPWR
.ends

* Black-box entry subcircuit for sky130_fd_sc_hd__decap_6 abstract view
.subckt sky130_fd_sc_hd__decap_6 VGND VNB VPB VPWR
.ends

* Black-box entry subcircuit for sky130_fd_sc_hd__decap_3 abstract view
.subckt sky130_fd_sc_hd__decap_3 VGND VNB VPB VPWR
.ends

* Black-box entry subcircuit for sky130_fd_sc_hd__decap_8 abstract view
.subckt sky130_fd_sc_hd__decap_8 VGND VNB VPB VPWR
.ends

* Black-box entry subcircuit for sky130_fd_sc_hd__decap_4 abstract view
.subckt sky130_fd_sc_hd__decap_4 VGND VNB VPB VPWR
.ends

* Black-box entry subcircuit for sky130_fd_sc_hd__mux2_1 abstract view
.subckt sky130_fd_sc_hd__mux2_1 A0 A1 S VGND VNB VPB VPWR X
.ends

* Black-box entry subcircuit for sky130_ef_sc_hd__decap_12 abstract view
.subckt sky130_ef_sc_hd__decap_12 VGND VNB VPB VPWR
.ends

* Black-box entry subcircuit for sky130_fd_sc_hd__fill_1 abstract view
.subckt sky130_fd_sc_hd__fill_1 VGND VNB VPB VPWR
.ends

* Black-box entry subcircuit for sky130_fd_sc_hd__clkbuf_1 abstract view
.subckt sky130_fd_sc_hd__clkbuf_1 A VGND VNB VPB VPWR X
.ends

* Black-box entry subcircuit for sky130_fd_sc_hd__or4b_1 abstract view
.subckt sky130_fd_sc_hd__or4b_1 A B C D_N VGND VNB VPB VPWR X
.ends

* Black-box entry subcircuit for sky130_fd_sc_hd__a22o_1 abstract view
.subckt sky130_fd_sc_hd__a22o_1 A1 A2 B1 B2 VGND VNB VPB VPWR X
.ends

* Black-box entry subcircuit for sky130_fd_sc_hd__and3_1 abstract view
.subckt sky130_fd_sc_hd__and3_1 A B C VGND VNB VPB VPWR X
.ends

* Black-box entry subcircuit for sky130_fd_sc_hd__clkbuf_8 abstract view
.subckt sky130_fd_sc_hd__clkbuf_8 A VGND VNB VPB VPWR X
.ends

* Black-box entry subcircuit for sky130_fd_sc_hd__or3b_1 abstract view
.subckt sky130_fd_sc_hd__or3b_1 A B C_N VGND VNB VPB VPWR X
.ends

* Black-box entry subcircuit for sky130_fd_sc_hd__fill_2 abstract view
.subckt sky130_fd_sc_hd__fill_2 VGND VNB VPB VPWR
.ends

* Black-box entry subcircuit for sky130_fd_sc_hd__o21a_1 abstract view
.subckt sky130_fd_sc_hd__o21a_1 A1 A2 B1 VGND VNB VPB VPWR X
.ends

* Black-box entry subcircuit for sky130_fd_sc_hd__or4_1 abstract view
.subckt sky130_fd_sc_hd__or4_1 A B C D VGND VNB VPB VPWR X
.ends

* Black-box entry subcircuit for sky130_fd_sc_hd__a31o_1 abstract view
.subckt sky130_fd_sc_hd__a31o_1 A1 A2 A3 B1 VGND VNB VPB VPWR X
.ends

* Black-box entry subcircuit for sky130_fd_sc_hd__a221o_1 abstract view
.subckt sky130_fd_sc_hd__a221o_1 A1 A2 B1 B2 C1 VGND VNB VPB VPWR X
.ends

* Black-box entry subcircuit for sky130_fd_sc_hd__and3b_1 abstract view
.subckt sky130_fd_sc_hd__and3b_1 A_N B C VGND VNB VPB VPWR X
.ends

* Black-box entry subcircuit for sky130_fd_sc_hd__a21o_1 abstract view
.subckt sky130_fd_sc_hd__a21o_1 A1 A2 B1 VGND VNB VPB VPWR X
.ends

* Black-box entry subcircuit for sky130_fd_sc_hd__dfrtp_1 abstract view
.subckt sky130_fd_sc_hd__dfrtp_1 CLK D RESET_B VGND VNB VPB VPWR Q
.ends

* Black-box entry subcircuit for sky130_fd_sc_hd__or2_1 abstract view
.subckt sky130_fd_sc_hd__or2_1 A B VGND VNB VPB VPWR X
.ends

* Black-box entry subcircuit for sky130_fd_sc_hd__and2_1 abstract view
.subckt sky130_fd_sc_hd__and2_1 A B VGND VNB VPB VPWR X
.ends

* Black-box entry subcircuit for sky130_fd_sc_hd__dlygate4sd3_1 abstract view
.subckt sky130_fd_sc_hd__dlygate4sd3_1 A VGND VNB VPB VPWR X
.ends

* Black-box entry subcircuit for sky130_fd_sc_hd__nor2_1 abstract view
.subckt sky130_fd_sc_hd__nor2_1 A B VGND VNB VPB VPWR Y
.ends

* Black-box entry subcircuit for sky130_fd_sc_hd__a21oi_4 abstract view
.subckt sky130_fd_sc_hd__a21oi_4 A1 A2 B1 VGND VNB VPB VPWR Y
.ends

* Black-box entry subcircuit for sky130_fd_sc_hd__dfrtp_4 abstract view
.subckt sky130_fd_sc_hd__dfrtp_4 CLK D RESET_B VGND VNB VPB VPWR Q
.ends

* Black-box entry subcircuit for sky130_fd_sc_hd__clkbuf_4 abstract view
.subckt sky130_fd_sc_hd__clkbuf_4 A VGND VNB VPB VPWR X
.ends

* Black-box entry subcircuit for sky130_fd_sc_hd__nand2_1 abstract view
.subckt sky130_fd_sc_hd__nand2_1 A B VGND VNB VPB VPWR Y
.ends

* Black-box entry subcircuit for sky130_fd_sc_hd__xnor2_1 abstract view
.subckt sky130_fd_sc_hd__xnor2_1 A B VGND VNB VPB VPWR Y
.ends

* Black-box entry subcircuit for sky130_fd_sc_hd__a21oi_1 abstract view
.subckt sky130_fd_sc_hd__a21oi_1 A1 A2 B1 VGND VNB VPB VPWR Y
.ends

* Black-box entry subcircuit for sky130_fd_sc_hd__inv_2 abstract view
.subckt sky130_fd_sc_hd__inv_2 A VGND VNB VPB VPWR Y
.ends

* Black-box entry subcircuit for sky130_fd_sc_hd__o221a_1 abstract view
.subckt sky130_fd_sc_hd__o221a_1 A1 A2 B1 B2 C1 VGND VNB VPB VPWR X
.ends

* Black-box entry subcircuit for sky130_fd_sc_hd__and4b_1 abstract view
.subckt sky130_fd_sc_hd__and4b_1 A_N B C D VGND VNB VPB VPWR X
.ends

* Black-box entry subcircuit for sky130_fd_sc_hd__xnor2_2 abstract view
.subckt sky130_fd_sc_hd__xnor2_2 A B VGND VNB VPB VPWR Y
.ends

* Black-box entry subcircuit for sky130_fd_sc_hd__buf_4 abstract view
.subckt sky130_fd_sc_hd__buf_4 A VGND VNB VPB VPWR X
.ends

* Black-box entry subcircuit for sky130_fd_sc_hd__o31ai_1 abstract view
.subckt sky130_fd_sc_hd__o31ai_1 A1 A2 A3 B1 VGND VNB VPB VPWR Y
.ends

* Black-box entry subcircuit for sky130_fd_sc_hd__a41o_1 abstract view
.subckt sky130_fd_sc_hd__a41o_1 A1 A2 A3 A4 B1 VGND VNB VPB VPWR X
.ends

* Black-box entry subcircuit for sky130_fd_sc_hd__buf_6 abstract view
.subckt sky130_fd_sc_hd__buf_6 A VGND VNB VPB VPWR X
.ends

* Black-box entry subcircuit for sky130_fd_sc_hd__o21ai_1 abstract view
.subckt sky130_fd_sc_hd__o21ai_1 A1 A2 B1 VGND VNB VPB VPWR Y
.ends

* Black-box entry subcircuit for sky130_fd_sc_hd__a2111o_1 abstract view
.subckt sky130_fd_sc_hd__a2111o_1 A1 A2 B1 C1 D1 VGND VNB VPB VPWR X
.ends

* Black-box entry subcircuit for sky130_fd_sc_hd__or4_4 abstract view
.subckt sky130_fd_sc_hd__or4_4 A B C D VGND VNB VPB VPWR X
.ends

* Black-box entry subcircuit for sky130_fd_sc_hd__o311a_1 abstract view
.subckt sky130_fd_sc_hd__o311a_1 A1 A2 A3 B1 C1 VGND VNB VPB VPWR X
.ends

* Black-box entry subcircuit for sky130_fd_sc_hd__and2_2 abstract view
.subckt sky130_fd_sc_hd__and2_2 A B VGND VNB VPB VPWR X
.ends

* Black-box entry subcircuit for sky130_fd_sc_hd__dfstp_4 abstract view
.subckt sky130_fd_sc_hd__dfstp_4 CLK D SET_B VGND VNB VPB VPWR Q
.ends

* Black-box entry subcircuit for sky130_fd_sc_hd__buf_2 abstract view
.subckt sky130_fd_sc_hd__buf_2 A VGND VNB VPB VPWR X
.ends

* Black-box entry subcircuit for sky130_fd_sc_hd__or3_1 abstract view
.subckt sky130_fd_sc_hd__or3_1 A B C VGND VNB VPB VPWR X
.ends

* Black-box entry subcircuit for sky130_fd_sc_hd__o21ai_2 abstract view
.subckt sky130_fd_sc_hd__o21ai_2 A1 A2 B1 VGND VNB VPB VPWR Y
.ends

* Black-box entry subcircuit for sky130_fd_sc_hd__o21bai_1 abstract view
.subckt sky130_fd_sc_hd__o21bai_1 A1 A2 B1_N VGND VNB VPB VPWR Y
.ends

* Black-box entry subcircuit for sky130_fd_sc_hd__a21boi_1 abstract view
.subckt sky130_fd_sc_hd__a21boi_1 A1 A2 B1_N VGND VNB VPB VPWR Y
.ends

* Black-box entry subcircuit for sky130_fd_sc_hd__nand4_1 abstract view
.subckt sky130_fd_sc_hd__nand4_1 A B C D VGND VNB VPB VPWR Y
.ends

* Black-box entry subcircuit for sky130_fd_sc_hd__dfrtp_2 abstract view
.subckt sky130_fd_sc_hd__dfrtp_2 CLK D RESET_B VGND VNB VPB VPWR Q
.ends

* Black-box entry subcircuit for sky130_fd_sc_hd__nand2_2 abstract view
.subckt sky130_fd_sc_hd__nand2_2 A B VGND VNB VPB VPWR Y
.ends

* Black-box entry subcircuit for sky130_fd_sc_hd__or2_2 abstract view
.subckt sky130_fd_sc_hd__or2_2 A B VGND VNB VPB VPWR X
.ends

* Black-box entry subcircuit for sky130_fd_sc_hd__o211a_1 abstract view
.subckt sky130_fd_sc_hd__o211a_1 A1 A2 B1 C1 VGND VNB VPB VPWR X
.ends

* Black-box entry subcircuit for sky130_fd_sc_hd__xnor2_4 abstract view
.subckt sky130_fd_sc_hd__xnor2_4 A B VGND VNB VPB VPWR Y
.ends

* Black-box entry subcircuit for sky130_fd_sc_hd__a2111o_4 abstract view
.subckt sky130_fd_sc_hd__a2111o_4 A1 A2 B1 C1 D1 VGND VNB VPB VPWR X
.ends

* Black-box entry subcircuit for sky130_fd_sc_hd__nand2_4 abstract view
.subckt sky130_fd_sc_hd__nand2_4 A B VGND VNB VPB VPWR Y
.ends

* Black-box entry subcircuit for sky130_fd_sc_hd__clkbuf_2 abstract view
.subckt sky130_fd_sc_hd__clkbuf_2 A VGND VNB VPB VPWR X
.ends

* Black-box entry subcircuit for sky130_fd_sc_hd__a211o_1 abstract view
.subckt sky130_fd_sc_hd__a211o_1 A1 A2 B1 C1 VGND VNB VPB VPWR X
.ends

* Black-box entry subcircuit for sky130_fd_sc_hd__o31a_1 abstract view
.subckt sky130_fd_sc_hd__o31a_1 A1 A2 A3 B1 VGND VNB VPB VPWR X
.ends

* Black-box entry subcircuit for sky130_fd_sc_hd__a21o_4 abstract view
.subckt sky130_fd_sc_hd__a21o_4 A1 A2 B1 VGND VNB VPB VPWR X
.ends

* Black-box entry subcircuit for sky130_fd_sc_hd__o21ba_1 abstract view
.subckt sky130_fd_sc_hd__o21ba_1 A1 A2 B1_N VGND VNB VPB VPWR X
.ends

* Black-box entry subcircuit for sky130_fd_sc_hd__clkdlybuf4s25_1 abstract view
.subckt sky130_fd_sc_hd__clkdlybuf4s25_1 A VGND VNB VPB VPWR X
.ends

* Black-box entry subcircuit for sky130_fd_sc_hd__o22ai_2 abstract view
.subckt sky130_fd_sc_hd__o22ai_2 A1 A2 B1 B2 VGND VNB VPB VPWR Y
.ends

* Black-box entry subcircuit for sky130_fd_sc_hd__a311oi_1 abstract view
.subckt sky130_fd_sc_hd__a311oi_1 A1 A2 A3 B1 C1 VGND VNB VPB VPWR Y
.ends

* Black-box entry subcircuit for sky130_fd_sc_hd__and4_1 abstract view
.subckt sky130_fd_sc_hd__and4_1 A B C D VGND VNB VPB VPWR X
.ends

* Black-box entry subcircuit for sky130_fd_sc_hd__or3_2 abstract view
.subckt sky130_fd_sc_hd__or3_2 A B C VGND VNB VPB VPWR X
.ends

* Black-box entry subcircuit for sky130_fd_sc_hd__xor2_1 abstract view
.subckt sky130_fd_sc_hd__xor2_1 A B VGND VNB VPB VPWR X
.ends

* Black-box entry subcircuit for sky130_fd_sc_hd__or4_2 abstract view
.subckt sky130_fd_sc_hd__or4_2 A B C D VGND VNB VPB VPWR X
.ends

* Black-box entry subcircuit for sky130_fd_sc_hd__o2111a_1 abstract view
.subckt sky130_fd_sc_hd__o2111a_1 A1 A2 B1 C1 D1 VGND VNB VPB VPWR X
.ends

* Black-box entry subcircuit for sky130_fd_sc_hd__a21oi_2 abstract view
.subckt sky130_fd_sc_hd__a21oi_2 A1 A2 B1 VGND VNB VPB VPWR Y
.ends

* Black-box entry subcircuit for sky130_fd_sc_hd__o31a_2 abstract view
.subckt sky130_fd_sc_hd__o31a_2 A1 A2 A3 B1 VGND VNB VPB VPWR X
.ends

* Black-box entry subcircuit for sky130_fd_sc_hd__clkbuf_16 abstract view
.subckt sky130_fd_sc_hd__clkbuf_16 A VGND VNB VPB VPWR X
.ends

* Black-box entry subcircuit for sky130_fd_sc_hd__a32o_1 abstract view
.subckt sky130_fd_sc_hd__a32o_1 A1 A2 A3 B1 B2 VGND VNB VPB VPWR X
.ends

* Black-box entry subcircuit for sky130_fd_sc_hd__and2b_1 abstract view
.subckt sky130_fd_sc_hd__and2b_1 A_N B VGND VNB VPB VPWR X
.ends

* Black-box entry subcircuit for sky130_fd_sc_hd__nor2_2 abstract view
.subckt sky130_fd_sc_hd__nor2_2 A B VGND VNB VPB VPWR Y
.ends

* Black-box entry subcircuit for sky130_fd_sc_hd__nor4_4 abstract view
.subckt sky130_fd_sc_hd__nor4_4 A B C D VGND VNB VPB VPWR Y
.ends

* Black-box entry subcircuit for sky130_fd_sc_hd__o211ai_1 abstract view
.subckt sky130_fd_sc_hd__o211ai_1 A1 A2 B1 C1 VGND VNB VPB VPWR Y
.ends

* Black-box entry subcircuit for sky130_fd_sc_hd__a211oi_1 abstract view
.subckt sky130_fd_sc_hd__a211oi_1 A1 A2 B1 C1 VGND VNB VPB VPWR Y
.ends

* Black-box entry subcircuit for sky130_fd_sc_hd__or2b_1 abstract view
.subckt sky130_fd_sc_hd__or2b_1 A B_N VGND VNB VPB VPWR X
.ends

* Black-box entry subcircuit for sky130_fd_sc_hd__o21ai_4 abstract view
.subckt sky130_fd_sc_hd__o21ai_4 A1 A2 B1 VGND VNB VPB VPWR Y
.ends

* Black-box entry subcircuit for sky130_fd_sc_hd__o41a_1 abstract view
.subckt sky130_fd_sc_hd__o41a_1 A1 A2 A3 A4 B1 VGND VNB VPB VPWR X
.ends

* Black-box entry subcircuit for sky130_fd_sc_hd__a311o_1 abstract view
.subckt sky130_fd_sc_hd__a311o_1 A1 A2 A3 B1 C1 VGND VNB VPB VPWR X
.ends

* Black-box entry subcircuit for sky130_fd_sc_hd__dfstp_2 abstract view
.subckt sky130_fd_sc_hd__dfstp_2 CLK D SET_B VGND VNB VPB VPWR Q
.ends

* Black-box entry subcircuit for sky130_fd_sc_hd__or4bb_1 abstract view
.subckt sky130_fd_sc_hd__or4bb_1 A B C_N D_N VGND VNB VPB VPWR X
.ends

* Black-box entry subcircuit for sky130_fd_sc_hd__o31ai_4 abstract view
.subckt sky130_fd_sc_hd__o31ai_4 A1 A2 A3 B1 VGND VNB VPB VPWR Y
.ends

* Black-box entry subcircuit for sky130_fd_sc_hd__o22a_1 abstract view
.subckt sky130_fd_sc_hd__o22a_1 A1 A2 B1 B2 VGND VNB VPB VPWR X
.ends

* Black-box entry subcircuit for sky130_fd_sc_hd__nor2_8 abstract view
.subckt sky130_fd_sc_hd__nor2_8 A B VGND VNB VPB VPWR Y
.ends

* Black-box entry subcircuit for sky130_fd_sc_hd__nand3_2 abstract view
.subckt sky130_fd_sc_hd__nand3_2 A B C VGND VNB VPB VPWR Y
.ends

* Black-box entry subcircuit for sky130_fd_sc_hd__o21a_2 abstract view
.subckt sky130_fd_sc_hd__o21a_2 A1 A2 B1 VGND VNB VPB VPWR X
.ends

* Black-box entry subcircuit for sky130_fd_sc_hd__a2bb2o_1 abstract view
.subckt sky130_fd_sc_hd__a2bb2o_1 A1_N A2_N B1 B2 VGND VNB VPB VPWR X
.ends

* Black-box entry subcircuit for sky130_fd_sc_hd__or4b_2 abstract view
.subckt sky130_fd_sc_hd__or4b_2 A B C D_N VGND VNB VPB VPWR X
.ends

* Black-box entry subcircuit for sky130_fd_sc_hd__nor3_4 abstract view
.subckt sky130_fd_sc_hd__nor3_4 A B C VGND VNB VPB VPWR Y
.ends

* Black-box entry subcircuit for sky130_fd_sc_hd__dfstp_1 abstract view
.subckt sky130_fd_sc_hd__dfstp_1 CLK D SET_B VGND VNB VPB VPWR Q
.ends

* Black-box entry subcircuit for sky130_fd_sc_hd__clkinv_8 abstract view
.subckt sky130_fd_sc_hd__clkinv_8 A VGND VNB VPB VPWR Y
.ends

* Black-box entry subcircuit for sky130_fd_sc_hd__o32a_1 abstract view
.subckt sky130_fd_sc_hd__o32a_1 A1 A2 A3 B1 B2 VGND VNB VPB VPWR X
.ends

* Black-box entry subcircuit for sky130_fd_sc_hd__o211ai_4 abstract view
.subckt sky130_fd_sc_hd__o211ai_4 A1 A2 B1 C1 VGND VNB VPB VPWR Y
.ends

* Black-box entry subcircuit for sky130_fd_sc_hd__nand4_2 abstract view
.subckt sky130_fd_sc_hd__nand4_2 A B C D VGND VNB VPB VPWR Y
.ends

* Black-box entry subcircuit for sky130_fd_sc_hd__a311o_2 abstract view
.subckt sky130_fd_sc_hd__a311o_2 A1 A2 A3 B1 C1 VGND VNB VPB VPWR X
.ends

* Black-box entry subcircuit for sky130_fd_sc_hd__buf_1 abstract view
.subckt sky130_fd_sc_hd__buf_1 A VGND VNB VPB VPWR X
.ends

* Black-box entry subcircuit for sky130_fd_sc_hd__nand3_1 abstract view
.subckt sky130_fd_sc_hd__nand3_1 A B C VGND VNB VPB VPWR Y
.ends

* Black-box entry subcircuit for sky130_fd_sc_hd__o21ba_2 abstract view
.subckt sky130_fd_sc_hd__o21ba_2 A1 A2 B1_N VGND VNB VPB VPWR X
.ends

* Black-box entry subcircuit for sky130_fd_sc_hd__a211o_2 abstract view
.subckt sky130_fd_sc_hd__a211o_2 A1 A2 B1 C1 VGND VNB VPB VPWR X
.ends

* Black-box entry subcircuit for sky130_fd_sc_hd__nor3_1 abstract view
.subckt sky130_fd_sc_hd__nor3_1 A B C VGND VNB VPB VPWR Y
.ends

* Black-box entry subcircuit for sky130_fd_sc_hd__o221ai_4 abstract view
.subckt sky130_fd_sc_hd__o221ai_4 A1 A2 B1 B2 C1 VGND VNB VPB VPWR Y
.ends

* Black-box entry subcircuit for sky130_fd_sc_hd__o2111a_4 abstract view
.subckt sky130_fd_sc_hd__o2111a_4 A1 A2 B1 C1 D1 VGND VNB VPB VPWR X
.ends

* Black-box entry subcircuit for sky130_fd_sc_hd__a22oi_4 abstract view
.subckt sky130_fd_sc_hd__a22oi_4 A1 A2 B1 B2 VGND VNB VPB VPWR Y
.ends

* Black-box entry subcircuit for sky130_fd_sc_hd__o22ai_1 abstract view
.subckt sky130_fd_sc_hd__o22ai_1 A1 A2 B1 B2 VGND VNB VPB VPWR Y
.ends

* Black-box entry subcircuit for sky130_fd_sc_hd__o41ai_1 abstract view
.subckt sky130_fd_sc_hd__o41ai_1 A1 A2 A3 A4 B1 VGND VNB VPB VPWR Y
.ends

* Black-box entry subcircuit for sky130_fd_sc_hd__a21o_2 abstract view
.subckt sky130_fd_sc_hd__a21o_2 A1 A2 B1 VGND VNB VPB VPWR X
.ends

.subckt synth VGND VPWR clk en keypad_i[0] keypad_i[10] keypad_i[11] keypad_i[12]
+ keypad_i[13] keypad_i[14] keypad_i[1] keypad_i[2] keypad_i[3] keypad_i[4] keypad_i[5]
+ keypad_i[6] keypad_i[7] keypad_i[8] keypad_i[9] n_rst pwm_o sound_series[0] sound_series[1]
+ sound_series[2] sound_series[3]
XTAP_177 VGND VPWR sky130_fd_sc_hd__tapvpwrvgnd_1
XTAP_188 VGND VPWR sky130_fd_sc_hd__tapvpwrvgnd_1
XTAP_199 VGND VPWR sky130_fd_sc_hd__tapvpwrvgnd_1
XFILLER_0_32_236 VGND VGND VPWR VPWR sky130_fd_sc_hd__decap_6
XFILLER_0_4_193 VGND VGND VPWR VPWR sky130_fd_sc_hd__decap_3
XFILLER_0_23_225 VGND VGND VPWR VPWR sky130_fd_sc_hd__decap_8
XFILLER_0_48_15 VGND VGND VPWR VPWR sky130_fd_sc_hd__decap_4
X_1270_ _0583_ _0584_ _0585_ VGND VGND VPWR VPWR _0586_ sky130_fd_sc_hd__mux2_1
XFILLER_0_3_39 VGND VGND VPWR VPWR sky130_ef_sc_hd__decap_12
XFILLER_0_58_133 VGND VGND VPWR VPWR sky130_fd_sc_hd__decap_6
XFILLER_0_54_361 VGND VGND VPWR VPWR sky130_fd_sc_hd__fill_1
X_1606_ _0147_ VGND VGND VPWR VPWR _0074_ sky130_fd_sc_hd__clkbuf_1
X_0985_ kp_encoder.sync_out\[4\] kp_encoder.sync_out\[5\] kp_encoder.sync_out\[6\]
+ kp_encoder.sync_out\[7\] VGND VGND VPWR VPWR _0356_ sky130_fd_sc_hd__or4b_1
X_1468_ net114 _0632_ _0634_ seq_div.R\[21\] VGND VGND VPWR VPWR _0767_ sky130_fd_sc_hd__a22o_1
XFILLER_0_38_70 VGND VGND VPWR VPWR sky130_ef_sc_hd__decap_12
X_1537_ _0106_ VGND VGND VPWR VPWR _0046_ sky130_fd_sc_hd__clkbuf_1
X_1399_ _0709_ seq_div.R\[8\] _0707_ VGND VGND VPWR VPWR _0710_ sky130_fd_sc_hd__mux2_1
XFILLER_0_49_133 VGND VGND VPWR VPWR sky130_fd_sc_hd__decap_4
XFILLER_0_52_309 VGND VGND VPWR VPWR sky130_ef_sc_hd__decap_12
XFILLER_0_45_361 VGND VGND VPWR VPWR sky130_fd_sc_hd__fill_1
XFILLER_0_50_49 VGND VGND VPWR VPWR sky130_ef_sc_hd__decap_12
XFILLER_0_50_27 VGND VGND VPWR VPWR sky130_fd_sc_hd__fill_1
XFILLER_0_59_47 VGND VGND VPWR VPWR sky130_fd_sc_hd__decap_8
XFILLER_0_55_169 VGND VGND VPWR VPWR sky130_fd_sc_hd__decap_4
X_1253_ clk8.count\[19\] clk8.count\[18\] _0567_ VGND VGND VPWR VPWR _0573_ sky130_fd_sc_hd__and3_1
X_1322_ _0633_ VGND VGND VPWR VPWR _0634_ sky130_fd_sc_hd__clkbuf_8
X_1184_ clk8.count\[3\] clk8.count\[2\] clk8.count\[4\] clk8.count\[5\] VGND VGND
+ VPWR VPWR _0523_ sky130_fd_sc_hd__or4b_1
XFILLER_0_46_114 VGND VGND VPWR VPWR sky130_fd_sc_hd__decap_3
Xclkbuf_4_12_0_clk clknet_0_clk VGND VGND VPWR VPWR clknet_4_12_0_clk sky130_fd_sc_hd__clkbuf_8
XFILLER_0_34_309 VGND VGND VPWR VPWR sky130_fd_sc_hd__decap_6
XFILLER_0_27_361 VGND VGND VPWR VPWR sky130_fd_sc_hd__fill_1
X_0968_ kp_encoder.sync_out\[4\] kp_encoder.sync_out\[5\] kp_encoder.sync_out\[6\]
+ VGND VGND VPWR VPWR _0339_ sky130_fd_sc_hd__or3b_1
XFILLER_0_24_72 VGND VGND VPWR VPWR sky130_fd_sc_hd__fill_2
XFILLER_0_42_353 VGND VGND VPWR VPWR sky130_fd_sc_hd__decap_8
XFILLER_0_42_342 VGND VGND VPWR VPWR sky130_fd_sc_hd__fill_2
X_0899_ _0260_ _0272_ _0238_ VGND VGND VPWR VPWR _0273_ sky130_fd_sc_hd__o21a_1
XFILLER_0_33_353 VGND VGND VPWR VPWR sky130_fd_sc_hd__decap_8
XFILLER_0_33_320 VGND VGND VPWR VPWR sky130_ef_sc_hd__decap_12
XFILLER_0_45_27 VGND VGND VPWR VPWR sky130_ef_sc_hd__decap_12
XFILLER_0_0_18 VGND VGND VPWR VPWR sky130_fd_sc_hd__decap_8
XFILLER_0_0_29 VGND VGND VPWR VPWR sky130_ef_sc_hd__decap_12
XFILLER_0_43_139 VGND VGND VPWR VPWR sky130_fd_sc_hd__decap_3
XFILLER_0_28_158 VGND VGND VPWR VPWR sky130_fd_sc_hd__fill_2
XFILLER_0_9_27 VGND VGND VPWR VPWR sky130_ef_sc_hd__decap_12
X_0822_ _0154_ _0184_ _0196_ SS_FSM.count\[2\] VGND VGND VPWR VPWR _0197_ sky130_fd_sc_hd__or4_1
XFILLER_0_36_191 VGND VGND VPWR VPWR sky130_fd_sc_hd__fill_1
XFILLER_0_3_247 VGND VGND VPWR VPWR sky130_fd_sc_hd__fill_1
XFILLER_0_3_225 VGND VGND VPWR VPWR sky130_fd_sc_hd__decap_3
XFILLER_0_3_203 VGND VGND VPWR VPWR sky130_ef_sc_hd__decap_12
XFILLER_0_10_41 VGND VGND VPWR VPWR sky130_ef_sc_hd__decap_12
XFILLER_0_10_85 VGND VGND VPWR VPWR sky130_ef_sc_hd__decap_12
X_1236_ clk8.count\[12\] clk8.count\[13\] _0553_ clk8.count\[14\] VGND VGND VPWR VPWR
+ _0561_ sky130_fd_sc_hd__a31o_1
X_1305_ pwm.count\[5\] _0597_ _0593_ pwm.count\[6\] _0620_ VGND VGND VPWR VPWR _0621_
+ sky130_fd_sc_hd__a221o_1
XFILLER_0_59_272 VGND VGND VPWR VPWR sky130_fd_sc_hd__decap_8
X_1167_ _0510_ _0511_ _0331_ VGND VGND VPWR VPWR _0512_ sky130_fd_sc_hd__and3b_1
X_1098_ _0463_ VGND VGND VPWR VPWR osc.next_count\[5\] sky130_fd_sc_hd__clkbuf_1
XFILLER_0_19_125 VGND VGND VPWR VPWR sky130_ef_sc_hd__decap_12
XFILLER_0_19_169 VGND VGND VPWR VPWR sky130_fd_sc_hd__decap_4
XFILLER_0_40_109 VGND VGND VPWR VPWR sky130_fd_sc_hd__fill_1
XFILLER_0_18_191 VGND VGND VPWR VPWR sky130_fd_sc_hd__decap_4
XFILLER_0_21_312 VGND VGND VPWR VPWR sky130_fd_sc_hd__decap_4
X_1021_ _0375_ _0391_ _0382_ VGND VGND VPWR VPWR _0392_ sky130_fd_sc_hd__a21o_1
XFILLER_0_56_264 VGND VGND VPWR VPWR sky130_fd_sc_hd__decap_8
XFILLER_0_56_253 VGND VGND VPWR VPWR sky130_fd_sc_hd__decap_4
X_1785_ clknet_4_3_0_clk net55 net30 VGND VGND VPWR VPWR kp_encoder.last_sk sky130_fd_sc_hd__dfrtp_1
X_0805_ SS_FSM.count\[6\] SS_FSM.count\[7\] VGND VGND VPWR VPWR _0180_ sky130_fd_sc_hd__or2_1
XFILLER_0_12_301 VGND VGND VPWR VPWR sky130_fd_sc_hd__decap_6
X_1219_ clk8.count\[9\] _0546_ VGND VGND VPWR VPWR _0549_ sky130_fd_sc_hd__and2_1
XFILLER_0_34_3 VGND VGND VPWR VPWR sky130_ef_sc_hd__decap_12
XFILLER_0_47_297 VGND VGND VPWR VPWR sky130_ef_sc_hd__decap_12
XFILLER_0_47_275 VGND VGND VPWR VPWR sky130_fd_sc_hd__decap_4
XFILLER_0_30_153 VGND VGND VPWR VPWR sky130_fd_sc_hd__decap_3
XFILLER_0_15_161 VGND VGND VPWR VPWR sky130_fd_sc_hd__decap_6
Xhold63 clk8.count\[13\] VGND VGND VPWR VPWR net101 sky130_fd_sc_hd__dlygate4sd3_1
Xhold41 seq_div.Q\[2\] VGND VGND VPWR VPWR net79 sky130_fd_sc_hd__dlygate4sd3_1
Xhold52 clk8.count\[3\] VGND VGND VPWR VPWR net90 sky130_fd_sc_hd__dlygate4sd3_1
Xhold74 SS_FSM.count\[7\] VGND VGND VPWR VPWR net112 sky130_fd_sc_hd__dlygate4sd3_1
XFILLER_0_30_197 VGND VGND VPWR VPWR sky130_fd_sc_hd__decap_6
Xhold30 seq_div.dividend\[0\] VGND VGND VPWR VPWR net68 sky130_fd_sc_hd__dlygate4sd3_1
XFILLER_0_26_29 VGND VGND VPWR VPWR sky130_ef_sc_hd__decap_12
Xhold85 seq_div.dividend\[0\] VGND VGND VPWR VPWR net123 sky130_fd_sc_hd__dlygate4sd3_1
XFILLER_0_38_253 VGND VGND VPWR VPWR sky130_fd_sc_hd__decap_4
XTAP_348 VGND VPWR sky130_fd_sc_hd__tapvpwrvgnd_1
X_1570_ _0237_ _0214_ VGND VGND VPWR VPWR _0129_ sky130_fd_sc_hd__nor2_1
XTAP_337 VGND VPWR sky130_fd_sc_hd__tapvpwrvgnd_1
XTAP_326 VGND VPWR sky130_fd_sc_hd__tapvpwrvgnd_1
XTAP_315 VGND VPWR sky130_fd_sc_hd__tapvpwrvgnd_1
XTAP_304 VGND VPWR sky130_fd_sc_hd__tapvpwrvgnd_1
XFILLER_0_21_142 VGND VGND VPWR VPWR sky130_ef_sc_hd__decap_12
XTAP_359 VGND VPWR sky130_fd_sc_hd__tapvpwrvgnd_1
X_1004_ _0348_ _0349_ _0350_ VGND VGND VPWR VPWR _0375_ sky130_fd_sc_hd__a21oi_4
XFILLER_0_4_342 VGND VGND VPWR VPWR sky130_ef_sc_hd__decap_12
X_1768_ clknet_4_10_0_clk net8 net34 VGND VGND VPWR VPWR kp_encoder.q\[1\] sky130_fd_sc_hd__dfrtp_1
X_1699_ clknet_4_1_0_clk _0055_ net29 VGND VGND VPWR VPWR SS_FSM.count\[4\] sky130_fd_sc_hd__dfrtp_4
XFILLER_0_12_197 VGND VGND VPWR VPWR sky130_ef_sc_hd__decap_12
XFILLER_0_50_237 VGND VGND VPWR VPWR sky130_fd_sc_hd__fill_1
Xoutput20 net20 VGND VGND VPWR VPWR sound_series[1] sky130_fd_sc_hd__clkbuf_4
XFILLER_0_37_39 VGND VGND VPWR VPWR sky130_ef_sc_hd__decap_12
XFILLER_0_53_38 VGND VGND VPWR VPWR sky130_ef_sc_hd__decap_12
X_1622_ clknet_4_3_0_clk SS_FSM.next_sound\[1\] net30 VGND VGND VPWR VPWR SS_FSM.sound\[1\]
+ sky130_fd_sc_hd__dfrtp_4
X_1484_ _0778_ VGND VGND VPWR VPWR _0020_ sky130_fd_sc_hd__clkbuf_1
X_1553_ _0179_ _0117_ VGND VGND VPWR VPWR _0118_ sky130_fd_sc_hd__nand2_1
XTAP_167 VGND VPWR sky130_fd_sc_hd__tapvpwrvgnd_1
XTAP_156 VGND VPWR sky130_fd_sc_hd__tapvpwrvgnd_1
XTAP_145 VGND VPWR sky130_fd_sc_hd__tapvpwrvgnd_1
XTAP_134 VGND VPWR sky130_fd_sc_hd__tapvpwrvgnd_1
XTAP_123 VGND VPWR sky130_fd_sc_hd__tapvpwrvgnd_1
XTAP_178 VGND VPWR sky130_fd_sc_hd__tapvpwrvgnd_1
XTAP_189 VGND VPWR sky130_fd_sc_hd__tapvpwrvgnd_1
XFILLER_0_49_337 VGND VGND VPWR VPWR sky130_ef_sc_hd__decap_12
XFILLER_0_43_71 VGND VGND VPWR VPWR sky130_ef_sc_hd__decap_12
XFILLER_0_40_292 VGND VGND VPWR VPWR sky130_ef_sc_hd__decap_12
XFILLER_0_32_259 VGND VGND VPWR VPWR sky130_fd_sc_hd__decap_4
XFILLER_0_2_109 VGND VGND VPWR VPWR sky130_ef_sc_hd__decap_12
X_0984_ kp_encoder.sync_out\[2\] kp_encoder.sync_out\[3\] VGND VGND VPWR VPWR _0355_
+ sky130_fd_sc_hd__nor2_1
X_1605_ net130 osc.count\[14\] _0132_ VGND VGND VPWR VPWR _0147_ sky130_fd_sc_hd__mux2_1
X_1536_ seq_div.D\[11\] _0105_ _0631_ VGND VGND VPWR VPWR _0106_ sky130_fd_sc_hd__mux2_1
X_1467_ _0765_ seq_div.R\[20\] _0707_ VGND VGND VPWR VPWR _0766_ sky130_fd_sc_hd__mux2_1
XFILLER_0_38_82 VGND VGND VPWR VPWR sky130_fd_sc_hd__fill_2
X_1398_ seq_div.D\[0\] _0695_ VGND VGND VPWR VPWR _0709_ sky130_fd_sc_hd__xnor2_1
XFILLER_0_54_70 VGND VGND VPWR VPWR sky130_fd_sc_hd__fill_2
XFILLER_0_49_167 VGND VGND VPWR VPWR sky130_fd_sc_hd__fill_1
XFILLER_0_60_321 VGND VGND VPWR VPWR sky130_ef_sc_hd__decap_12
XFILLER_0_34_29 VGND VGND VPWR VPWR sky130_fd_sc_hd__decap_8
XFILLER_0_55_159 VGND VGND VPWR VPWR sky130_fd_sc_hd__decap_8
XFILLER_0_55_104 VGND VGND VPWR VPWR sky130_fd_sc_hd__decap_8
XFILLER_0_28_329 VGND VGND VPWR VPWR sky130_fd_sc_hd__decap_3
XFILLER_0_28_307 VGND VGND VPWR VPWR sky130_fd_sc_hd__fill_1
XFILLER_0_59_15 VGND VGND VPWR VPWR sky130_ef_sc_hd__decap_12
X_1252_ _0572_ VGND VGND VPWR VPWR clk8.next_count\[18\] sky130_fd_sc_hd__clkbuf_1
X_1321_ _0626_ _0631_ VGND VGND VPWR VPWR _0633_ sky130_fd_sc_hd__nor2_1
X_1183_ net61 _0519_ _0522_ VGND VGND VPWR VPWR pwm.next_count\[7\] sky130_fd_sc_hd__a21oi_1
XFILLER_0_19_329 VGND VGND VPWR VPWR sky130_fd_sc_hd__fill_1
XFILLER_0_54_170 VGND VGND VPWR VPWR sky130_fd_sc_hd__decap_4
XFILLER_0_46_137 VGND VGND VPWR VPWR sky130_fd_sc_hd__decap_3
XFILLER_0_42_332 VGND VGND VPWR VPWR sky130_fd_sc_hd__decap_3
X_0967_ kp_encoder.sync_out\[10\] VGND VGND VPWR VPWR _0338_ sky130_fd_sc_hd__inv_2
XFILLER_0_49_92 VGND VGND VPWR VPWR sky130_fd_sc_hd__decap_3
XFILLER_0_10_251 VGND VGND VPWR VPWR sky130_fd_sc_hd__fill_1
X_1519_ _0435_ VGND VGND VPWR VPWR _0095_ sky130_fd_sc_hd__inv_2
X_0898_ _0232_ _0268_ _0271_ _0175_ VGND VGND VPWR VPWR _0272_ sky130_fd_sc_hd__a31o_1
XFILLER_0_4_83 VGND VGND VPWR VPWR sky130_fd_sc_hd__fill_1
XFILLER_0_18_340 VGND VGND VPWR VPWR sky130_fd_sc_hd__decap_6
XFILLER_0_60_195 VGND VGND VPWR VPWR sky130_fd_sc_hd__fill_1
XFILLER_0_33_343 VGND VGND VPWR VPWR sky130_fd_sc_hd__fill_1
XFILLER_0_33_332 VGND VGND VPWR VPWR sky130_fd_sc_hd__decap_4
XFILLER_0_45_39 VGND VGND VPWR VPWR sky130_ef_sc_hd__decap_12
XFILLER_0_3_215 VGND VGND VPWR VPWR sky130_fd_sc_hd__decap_8
XFILLER_0_9_39 VGND VGND VPWR VPWR sky130_ef_sc_hd__decap_12
X_0821_ SS_FSM.count\[3\] VGND VGND VPWR VPWR _0196_ sky130_fd_sc_hd__inv_2
XFILLER_0_24_321 VGND VGND VPWR VPWR sky130_ef_sc_hd__decap_12
XFILLER_0_51_151 VGND VGND VPWR VPWR sky130_fd_sc_hd__fill_2
XFILLER_0_10_53 VGND VGND VPWR VPWR sky130_ef_sc_hd__decap_12
XFILLER_0_10_97 VGND VGND VPWR VPWR sky130_ef_sc_hd__decap_12
X_1235_ clk8.count\[13\] clk8.count\[14\] _0556_ VGND VGND VPWR VPWR _0560_ sky130_fd_sc_hd__and3_1
X_1304_ pwm.count\[4\] _0601_ _0597_ pwm.count\[5\] _0619_ VGND VGND VPWR VPWR _0620_
+ sky130_fd_sc_hd__o221a_1
X_1166_ pwm.count\[0\] pwm.count\[1\] pwm.count\[2\] VGND VGND VPWR VPWR _0511_ sky130_fd_sc_hd__a21o_1
XFILLER_0_19_51 VGND VGND VPWR VPWR sky130_fd_sc_hd__decap_4
XFILLER_0_59_251 VGND VGND VPWR VPWR sky130_fd_sc_hd__fill_1
X_1097_ _0461_ _0417_ _0448_ _0462_ VGND VGND VPWR VPWR _0463_ sky130_fd_sc_hd__and4b_1
XFILLER_0_19_137 VGND VGND VPWR VPWR sky130_ef_sc_hd__decap_12
XFILLER_0_33_173 VGND VGND VPWR VPWR sky130_fd_sc_hd__fill_1
XFILLER_0_21_335 VGND VGND VPWR VPWR sky130_fd_sc_hd__fill_1
XFILLER_0_56_27 VGND VGND VPWR VPWR sky130_fd_sc_hd__fill_1
X_1020_ _0361_ _0377_ VGND VGND VPWR VPWR _0391_ sky130_fd_sc_hd__xnor2_2
Xclkbuf_4_11_0_clk clknet_0_clk VGND VGND VPWR VPWR clknet_4_11_0_clk sky130_fd_sc_hd__clkbuf_8
XFILLER_0_8_307 VGND VGND VPWR VPWR sky130_fd_sc_hd__fill_1
X_1784_ clknet_4_7_0_clk net50 net31 VGND VGND VPWR VPWR kp_encoder.last_mk sky130_fd_sc_hd__dfrtp_1
X_0804_ SS_FSM.count\[0\] VGND VGND VPWR VPWR _0179_ sky130_fd_sc_hd__buf_4
XFILLER_0_21_74 VGND VGND VPWR VPWR sky130_fd_sc_hd__decap_3
X_1218_ _0548_ VGND VGND VPWR VPWR clk8.next_count\[8\] sky130_fd_sc_hd__clkbuf_1
X_1149_ net93 _0497_ _0499_ VGND VGND VPWR VPWR clk_div.next_count\[4\] sky130_fd_sc_hd__o21a_1
XFILLER_0_1_51 VGND VGND VPWR VPWR sky130_fd_sc_hd__decap_4
XFILLER_0_30_187 VGND VGND VPWR VPWR sky130_fd_sc_hd__fill_1
Xhold64 clk8.next_count\[13\] VGND VGND VPWR VPWR net102 sky130_fd_sc_hd__dlygate4sd3_1
Xhold42 _0029_ VGND VGND VPWR VPWR net80 sky130_fd_sc_hd__dlygate4sd3_1
Xhold20 pwm.count\[0\] VGND VGND VPWR VPWR net58 sky130_fd_sc_hd__dlygate4sd3_1
Xhold53 seq_div.dividend\[10\] VGND VGND VPWR VPWR net91 sky130_fd_sc_hd__dlygate4sd3_1
Xhold31 _0003_ VGND VGND VPWR VPWR net69 sky130_fd_sc_hd__dlygate4sd3_1
Xhold75 seq_div.dividend\[1\] VGND VGND VPWR VPWR net113 sky130_fd_sc_hd__dlygate4sd3_1
Xhold86 seq_div.dividend\[4\] VGND VGND VPWR VPWR net124 sky130_fd_sc_hd__dlygate4sd3_1
XFILLER_0_53_246 VGND VGND VPWR VPWR sky130_fd_sc_hd__decap_8
XTAP_349 VGND VPWR sky130_fd_sc_hd__tapvpwrvgnd_1
XTAP_338 VGND VPWR sky130_fd_sc_hd__tapvpwrvgnd_1
XTAP_327 VGND VPWR sky130_fd_sc_hd__tapvpwrvgnd_1
XTAP_316 VGND VPWR sky130_fd_sc_hd__tapvpwrvgnd_1
XTAP_305 VGND VPWR sky130_fd_sc_hd__tapvpwrvgnd_1
XFILLER_0_6_29 VGND VGND VPWR VPWR sky130_ef_sc_hd__decap_12
XFILLER_0_21_165 VGND VGND VPWR VPWR sky130_fd_sc_hd__decap_3
XFILLER_0_21_198 VGND VGND VPWR VPWR sky130_fd_sc_hd__decap_8
X_1003_ _0351_ _0361_ _0370_ _0373_ VGND VGND VPWR VPWR _0374_ sky130_fd_sc_hd__o31ai_1
XFILLER_0_16_63 VGND VGND VPWR VPWR sky130_ef_sc_hd__decap_12
XFILLER_0_16_85 VGND VGND VPWR VPWR sky130_fd_sc_hd__fill_1
XFILLER_0_32_62 VGND VGND VPWR VPWR sky130_fd_sc_hd__fill_2
XFILLER_0_29_221 VGND VGND VPWR VPWR sky130_fd_sc_hd__decap_3
X_1698_ clknet_4_1_0_clk _0054_ net28 VGND VGND VPWR VPWR SS_FSM.count\[3\] sky130_fd_sc_hd__dfrtp_4
XFILLER_0_4_354 VGND VGND VPWR VPWR sky130_fd_sc_hd__decap_8
X_1767_ clknet_4_10_0_clk net2 net34 VGND VGND VPWR VPWR kp_encoder.q\[0\] sky130_fd_sc_hd__dfrtp_1
XFILLER_0_57_70 VGND VGND VPWR VPWR sky130_ef_sc_hd__decap_12
XFILLER_0_35_268 VGND VGND VPWR VPWR sky130_fd_sc_hd__decap_8