* NGSPICE file created from Synthia.ext - technology: sky130A

* Black-box entry subcircuit for sky130_fd_sc_hd__tapvpwrvgnd_1 abstract view
.subckt sky130_fd_sc_hd__tapvpwrvgnd_1 VGND VPWR
.ends

* Black-box entry subcircuit for sky130_fd_sc_hd__a21oi_4 abstract view
.subckt sky130_fd_sc_hd__a21oi_4 A1 A2 B1 VGND VNB VPB VPWR Y
.ends

* Black-box entry subcircuit for sky130_fd_sc_hd__a2bb2o_1 abstract view
.subckt sky130_fd_sc_hd__a2bb2o_1 A1_N A2_N B1 B2 VGND VNB VPB VPWR X
.ends

* Black-box entry subcircuit for sky130_fd_sc_hd__a31o_1 abstract view
.subckt sky130_fd_sc_hd__a31o_1 A1 A2 A3 B1 VGND VNB VPB VPWR X
.ends

* Black-box entry subcircuit for sky130_ef_sc_hd__decap_12 abstract view
.subckt sky130_ef_sc_hd__decap_12 VGND VNB VPB VPWR
.ends

* Black-box entry subcircuit for sky130_fd_sc_hd__nand2_4 abstract view
.subckt sky130_fd_sc_hd__nand2_4 A B VGND VNB VPB VPWR Y
.ends

* Black-box entry subcircuit for sky130_fd_sc_hd__decap_6 abstract view
.subckt sky130_fd_sc_hd__decap_6 VGND VNB VPB VPWR
.ends

* Black-box entry subcircuit for sky130_fd_sc_hd__fill_1 abstract view
.subckt sky130_fd_sc_hd__fill_1 VGND VNB VPB VPWR
.ends

* Black-box entry subcircuit for sky130_fd_sc_hd__and2_1 abstract view
.subckt sky130_fd_sc_hd__and2_1 A B VGND VNB VPB VPWR X
.ends

* Black-box entry subcircuit for sky130_fd_sc_hd__o2111a_1 abstract view
.subckt sky130_fd_sc_hd__o2111a_1 A1 A2 B1 C1 D1 VGND VNB VPB VPWR X
.ends

* Black-box entry subcircuit for sky130_fd_sc_hd__decap_3 abstract view
.subckt sky130_fd_sc_hd__decap_3 VGND VNB VPB VPWR
.ends

* Black-box entry subcircuit for sky130_fd_sc_hd__fill_2 abstract view
.subckt sky130_fd_sc_hd__fill_2 VGND VNB VPB VPWR
.ends

* Black-box entry subcircuit for sky130_fd_sc_hd__decap_8 abstract view
.subckt sky130_fd_sc_hd__decap_8 VGND VNB VPB VPWR
.ends

* Black-box entry subcircuit for sky130_fd_sc_hd__clkbuf_2 abstract view
.subckt sky130_fd_sc_hd__clkbuf_2 A VGND VNB VPB VPWR X
.ends

* Black-box entry subcircuit for sky130_fd_sc_hd__nor2_1 abstract view
.subckt sky130_fd_sc_hd__nor2_1 A B VGND VNB VPB VPWR Y
.ends

* Black-box entry subcircuit for sky130_fd_sc_hd__nand2_1 abstract view
.subckt sky130_fd_sc_hd__nand2_1 A B VGND VNB VPB VPWR Y
.ends

* Black-box entry subcircuit for sky130_fd_sc_hd__a221o_1 abstract view
.subckt sky130_fd_sc_hd__a221o_1 A1 A2 B1 B2 C1 VGND VNB VPB VPWR X
.ends

* Black-box entry subcircuit for sky130_fd_sc_hd__o21a_1 abstract view
.subckt sky130_fd_sc_hd__o21a_1 A1 A2 B1 VGND VNB VPB VPWR X
.ends

* Black-box entry subcircuit for sky130_fd_sc_hd__inv_2 abstract view
.subckt sky130_fd_sc_hd__inv_2 A VGND VNB VPB VPWR Y
.ends

* Black-box entry subcircuit for sky130_fd_sc_hd__decap_4 abstract view
.subckt sky130_fd_sc_hd__decap_4 VGND VNB VPB VPWR
.ends

* Black-box entry subcircuit for sky130_fd_sc_hd__dfrtp_4 abstract view
.subckt sky130_fd_sc_hd__dfrtp_4 CLK D RESET_B VGND VNB VPB VPWR Q
.ends

* Black-box entry subcircuit for sky130_fd_sc_hd__a31o_2 abstract view
.subckt sky130_fd_sc_hd__a31o_2 A1 A2 A3 B1 VGND VNB VPB VPWR X
.ends

* Black-box entry subcircuit for sky130_fd_sc_hd__o31a_1 abstract view
.subckt sky130_fd_sc_hd__o31a_1 A1 A2 A3 B1 VGND VNB VPB VPWR X
.ends

* Black-box entry subcircuit for sky130_fd_sc_hd__dlygate4sd3_1 abstract view
.subckt sky130_fd_sc_hd__dlygate4sd3_1 A VGND VNB VPB VPWR X
.ends

* Black-box entry subcircuit for sky130_fd_sc_hd__a21oi_1 abstract view
.subckt sky130_fd_sc_hd__a21oi_1 A1 A2 B1 VGND VNB VPB VPWR Y
.ends

* Black-box entry subcircuit for sky130_fd_sc_hd__a22o_1 abstract view
.subckt sky130_fd_sc_hd__a22o_1 A1 A2 B1 B2 VGND VNB VPB VPWR X
.ends

* Black-box entry subcircuit for sky130_fd_sc_hd__o21ai_1 abstract view
.subckt sky130_fd_sc_hd__o21ai_1 A1 A2 B1 VGND VNB VPB VPWR Y
.ends

* Black-box entry subcircuit for sky130_fd_sc_hd__o22a_1 abstract view
.subckt sky130_fd_sc_hd__o22a_1 A1 A2 B1 B2 VGND VNB VPB VPWR X
.ends

* Black-box entry subcircuit for sky130_fd_sc_hd__and3b_1 abstract view
.subckt sky130_fd_sc_hd__and3b_1 A_N B C VGND VNB VPB VPWR X
.ends

* Black-box entry subcircuit for sky130_fd_sc_hd__and2b_1 abstract view
.subckt sky130_fd_sc_hd__and2b_1 A_N B VGND VNB VPB VPWR X
.ends

* Black-box entry subcircuit for sky130_fd_sc_hd__clkbuf_1 abstract view
.subckt sky130_fd_sc_hd__clkbuf_1 A VGND VNB VPB VPWR X
.ends

* Black-box entry subcircuit for sky130_fd_sc_hd__dfrtp_2 abstract view
.subckt sky130_fd_sc_hd__dfrtp_2 CLK D RESET_B VGND VNB VPB VPWR Q
.ends

* Black-box entry subcircuit for sky130_fd_sc_hd__or2_1 abstract view
.subckt sky130_fd_sc_hd__or2_1 A B VGND VNB VPB VPWR X
.ends

* Black-box entry subcircuit for sky130_fd_sc_hd__xnor2_1 abstract view
.subckt sky130_fd_sc_hd__xnor2_1 A B VGND VNB VPB VPWR Y
.ends

* Black-box entry subcircuit for sky130_fd_sc_hd__mux2_1 abstract view
.subckt sky130_fd_sc_hd__mux2_1 A0 A1 S VGND VNB VPB VPWR X
.ends

* Black-box entry subcircuit for sky130_fd_sc_hd__a21o_1 abstract view
.subckt sky130_fd_sc_hd__a21o_1 A1 A2 B1 VGND VNB VPB VPWR X
.ends

* Black-box entry subcircuit for sky130_fd_sc_hd__a21oi_2 abstract view
.subckt sky130_fd_sc_hd__a21oi_2 A1 A2 B1 VGND VNB VPB VPWR Y
.ends

* Black-box entry subcircuit for sky130_fd_sc_hd__o22ai_2 abstract view
.subckt sky130_fd_sc_hd__o22ai_2 A1 A2 B1 B2 VGND VNB VPB VPWR Y
.ends

* Black-box entry subcircuit for sky130_fd_sc_hd__o221a_1 abstract view
.subckt sky130_fd_sc_hd__o221a_1 A1 A2 B1 B2 C1 VGND VNB VPB VPWR X
.ends

* Black-box entry subcircuit for sky130_fd_sc_hd__or2b_1 abstract view
.subckt sky130_fd_sc_hd__or2b_1 A B_N VGND VNB VPB VPWR X
.ends

* Black-box entry subcircuit for sky130_fd_sc_hd__buf_6 abstract view
.subckt sky130_fd_sc_hd__buf_6 A VGND VNB VPB VPWR X
.ends

* Black-box entry subcircuit for sky130_fd_sc_hd__and3_1 abstract view
.subckt sky130_fd_sc_hd__and3_1 A B C VGND VNB VPB VPWR X
.ends

* Black-box entry subcircuit for sky130_fd_sc_hd__o21ai_2 abstract view
.subckt sky130_fd_sc_hd__o21ai_2 A1 A2 B1 VGND VNB VPB VPWR Y
.ends

* Black-box entry subcircuit for sky130_fd_sc_hd__o311a_1 abstract view
.subckt sky130_fd_sc_hd__o311a_1 A1 A2 A3 B1 C1 VGND VNB VPB VPWR X
.ends

* Black-box entry subcircuit for sky130_fd_sc_hd__dfrtp_1 abstract view
.subckt sky130_fd_sc_hd__dfrtp_1 CLK D RESET_B VGND VNB VPB VPWR Q
.ends

* Black-box entry subcircuit for sky130_fd_sc_hd__and2_2 abstract view
.subckt sky130_fd_sc_hd__and2_2 A B VGND VNB VPB VPWR X
.ends

* Black-box entry subcircuit for sky130_fd_sc_hd__nand3_1 abstract view
.subckt sky130_fd_sc_hd__nand3_1 A B C VGND VNB VPB VPWR Y
.ends

* Black-box entry subcircuit for sky130_fd_sc_hd__dlymetal6s2s_1 abstract view
.subckt sky130_fd_sc_hd__dlymetal6s2s_1 A VGND VNB VPB VPWR X
.ends

* Black-box entry subcircuit for sky130_fd_sc_hd__a31oi_4 abstract view
.subckt sky130_fd_sc_hd__a31oi_4 A1 A2 A3 B1 VGND VNB VPB VPWR Y
.ends

* Black-box entry subcircuit for sky130_fd_sc_hd__o32a_1 abstract view
.subckt sky130_fd_sc_hd__o32a_1 A1 A2 A3 B1 B2 VGND VNB VPB VPWR X
.ends

* Black-box entry subcircuit for sky130_fd_sc_hd__a211o_1 abstract view
.subckt sky130_fd_sc_hd__a211o_1 A1 A2 B1 C1 VGND VNB VPB VPWR X
.ends

* Black-box entry subcircuit for sky130_fd_sc_hd__buf_12 abstract view
.subckt sky130_fd_sc_hd__buf_12 A VGND VNB VPB VPWR X
.ends

* Black-box entry subcircuit for sky130_fd_sc_hd__nor3_1 abstract view
.subckt sky130_fd_sc_hd__nor3_1 A B C VGND VNB VPB VPWR Y
.ends

* Black-box entry subcircuit for sky130_fd_sc_hd__nand4_1 abstract view
.subckt sky130_fd_sc_hd__nand4_1 A B C D VGND VNB VPB VPWR Y
.ends

* Black-box entry subcircuit for sky130_fd_sc_hd__xor2_2 abstract view
.subckt sky130_fd_sc_hd__xor2_2 A B VGND VNB VPB VPWR X
.ends

* Black-box entry subcircuit for sky130_fd_sc_hd__a211oi_1 abstract view
.subckt sky130_fd_sc_hd__a211oi_1 A1 A2 B1 C1 VGND VNB VPB VPWR Y
.ends

* Black-box entry subcircuit for sky130_fd_sc_hd__nor2_2 abstract view
.subckt sky130_fd_sc_hd__nor2_2 A B VGND VNB VPB VPWR Y
.ends

* Black-box entry subcircuit for sky130_fd_sc_hd__clkbuf_8 abstract view
.subckt sky130_fd_sc_hd__clkbuf_8 A VGND VNB VPB VPWR X
.ends

* Black-box entry subcircuit for sky130_fd_sc_hd__or4b_2 abstract view
.subckt sky130_fd_sc_hd__or4b_2 A B C D_N VGND VNB VPB VPWR X
.ends

* Black-box entry subcircuit for sky130_fd_sc_hd__buf_8 abstract view
.subckt sky130_fd_sc_hd__buf_8 A VGND VNB VPB VPWR X
.ends

* Black-box entry subcircuit for sky130_fd_sc_hd__xnor2_2 abstract view
.subckt sky130_fd_sc_hd__xnor2_2 A B VGND VNB VPB VPWR Y
.ends

* Black-box entry subcircuit for sky130_fd_sc_hd__o2bb2a_1 abstract view
.subckt sky130_fd_sc_hd__o2bb2a_1 A1_N A2_N B1 B2 VGND VNB VPB VPWR X
.ends

* Black-box entry subcircuit for sky130_fd_sc_hd__a21boi_1 abstract view
.subckt sky130_fd_sc_hd__a21boi_1 A1 A2 B1_N VGND VNB VPB VPWR Y
.ends

* Black-box entry subcircuit for sky130_fd_sc_hd__a211oi_4 abstract view
.subckt sky130_fd_sc_hd__a211oi_4 A1 A2 B1 C1 VGND VNB VPB VPWR Y
.ends

* Black-box entry subcircuit for sky130_fd_sc_hd__a21bo_1 abstract view
.subckt sky130_fd_sc_hd__a21bo_1 A1 A2 B1_N VGND VNB VPB VPWR X
.ends

* Black-box entry subcircuit for sky130_fd_sc_hd__and4_1 abstract view
.subckt sky130_fd_sc_hd__and4_1 A B C D VGND VNB VPB VPWR X
.ends

* Black-box entry subcircuit for sky130_fd_sc_hd__a2111o_1 abstract view
.subckt sky130_fd_sc_hd__a2111o_1 A1 A2 B1 C1 D1 VGND VNB VPB VPWR X
.ends

* Black-box entry subcircuit for sky130_fd_sc_hd__a221oi_4 abstract view
.subckt sky130_fd_sc_hd__a221oi_4 A1 A2 B1 B2 C1 VGND VNB VPB VPWR Y
.ends

* Black-box entry subcircuit for sky130_fd_sc_hd__nand2_2 abstract view
.subckt sky130_fd_sc_hd__nand2_2 A B VGND VNB VPB VPWR Y
.ends

* Black-box entry subcircuit for sky130_fd_sc_hd__a31oi_2 abstract view
.subckt sky130_fd_sc_hd__a31oi_2 A1 A2 A3 B1 VGND VNB VPB VPWR Y
.ends

* Black-box entry subcircuit for sky130_fd_sc_hd__o211a_1 abstract view
.subckt sky130_fd_sc_hd__o211a_1 A1 A2 B1 C1 VGND VNB VPB VPWR X
.ends

* Black-box entry subcircuit for sky130_fd_sc_hd__or3_1 abstract view
.subckt sky130_fd_sc_hd__or3_1 A B C VGND VNB VPB VPWR X
.ends

* Black-box entry subcircuit for sky130_fd_sc_hd__a22oi_2 abstract view
.subckt sky130_fd_sc_hd__a22oi_2 A1 A2 B1 B2 VGND VNB VPB VPWR Y
.ends

* Black-box entry subcircuit for sky130_fd_sc_hd__o21ba_1 abstract view
.subckt sky130_fd_sc_hd__o21ba_1 A1 A2 B1_N VGND VNB VPB VPWR X
.ends

* Black-box entry subcircuit for sky130_fd_sc_hd__xor2_1 abstract view
.subckt sky130_fd_sc_hd__xor2_1 A B VGND VNB VPB VPWR X
.ends

* Black-box entry subcircuit for sky130_fd_sc_hd__clkbuf_16 abstract view
.subckt sky130_fd_sc_hd__clkbuf_16 A VGND VNB VPB VPWR X
.ends

* Black-box entry subcircuit for sky130_fd_sc_hd__and4bb_2 abstract view
.subckt sky130_fd_sc_hd__and4bb_2 A_N B_N C D VGND VNB VPB VPWR X
.ends

* Black-box entry subcircuit for sky130_fd_sc_hd__conb_1 abstract view
.subckt sky130_fd_sc_hd__conb_1 VGND VNB VPB VPWR HI LO
.ends

* Black-box entry subcircuit for sky130_fd_sc_hd__o31ai_1 abstract view
.subckt sky130_fd_sc_hd__o31ai_1 A1 A2 A3 B1 VGND VNB VPB VPWR Y
.ends

* Black-box entry subcircuit for sky130_fd_sc_hd__a2111oi_1 abstract view
.subckt sky130_fd_sc_hd__a2111oi_1 A1 A2 B1 C1 D1 VGND VNB VPB VPWR Y
.ends

* Black-box entry subcircuit for sky130_fd_sc_hd__nand3b_1 abstract view
.subckt sky130_fd_sc_hd__nand3b_1 A_N B C VGND VNB VPB VPWR Y
.ends

* Black-box entry subcircuit for sky130_fd_sc_hd__and4b_1 abstract view
.subckt sky130_fd_sc_hd__and4b_1 A_N B C D VGND VNB VPB VPWR X
.ends

* Black-box entry subcircuit for sky130_fd_sc_hd__a2bb2o_2 abstract view
.subckt sky130_fd_sc_hd__a2bb2o_2 A1_N A2_N B1 B2 VGND VNB VPB VPWR X
.ends

* Black-box entry subcircuit for sky130_fd_sc_hd__o221ai_1 abstract view
.subckt sky130_fd_sc_hd__o221ai_1 A1 A2 B1 B2 C1 VGND VNB VPB VPWR Y
.ends

* Black-box entry subcircuit for sky130_fd_sc_hd__buf_1 abstract view
.subckt sky130_fd_sc_hd__buf_1 A VGND VNB VPB VPWR X
.ends

* Black-box entry subcircuit for sky130_fd_sc_hd__a22oi_1 abstract view
.subckt sky130_fd_sc_hd__a22oi_1 A1 A2 B1 B2 VGND VNB VPB VPWR Y
.ends

* Black-box entry subcircuit for sky130_fd_sc_hd__xor2_4 abstract view
.subckt sky130_fd_sc_hd__xor2_4 A B VGND VNB VPB VPWR X
.ends

* Black-box entry subcircuit for sky130_fd_sc_hd__a21boi_2 abstract view
.subckt sky130_fd_sc_hd__a21boi_2 A1 A2 B1_N VGND VNB VPB VPWR Y
.ends

* Black-box entry subcircuit for sky130_fd_sc_hd__o21bai_2 abstract view
.subckt sky130_fd_sc_hd__o21bai_2 A1 A2 B1_N VGND VNB VPB VPWR Y
.ends

* Black-box entry subcircuit for sky130_fd_sc_hd__o211ai_1 abstract view
.subckt sky130_fd_sc_hd__o211ai_1 A1 A2 B1 C1 VGND VNB VPB VPWR Y
.ends

* Black-box entry subcircuit for sky130_fd_sc_hd__clkdlybuf4s25_1 abstract view
.subckt sky130_fd_sc_hd__clkdlybuf4s25_1 A VGND VNB VPB VPWR X
.ends

* Black-box entry subcircuit for sky130_fd_sc_hd__clkbuf_4 abstract view
.subckt sky130_fd_sc_hd__clkbuf_4 A VGND VNB VPB VPWR X
.ends

* Black-box entry subcircuit for sky130_fd_sc_hd__nor2b_2 abstract view
.subckt sky130_fd_sc_hd__nor2b_2 A B_N VGND VNB VPB VPWR Y
.ends

* Black-box entry subcircuit for sky130_fd_sc_hd__or4_1 abstract view
.subckt sky130_fd_sc_hd__or4_1 A B C D VGND VNB VPB VPWR X
.ends

* Black-box entry subcircuit for sky130_fd_sc_hd__a41o_1 abstract view
.subckt sky130_fd_sc_hd__a41o_1 A1 A2 A3 A4 B1 VGND VNB VPB VPWR X
.ends

* Black-box entry subcircuit for sky130_fd_sc_hd__buf_4 abstract view
.subckt sky130_fd_sc_hd__buf_4 A VGND VNB VPB VPWR X
.ends

* Black-box entry subcircuit for sky130_fd_sc_hd__xnor2_4 abstract view
.subckt sky130_fd_sc_hd__xnor2_4 A B VGND VNB VPB VPWR Y
.ends

* Black-box entry subcircuit for sky130_fd_sc_hd__o21ai_4 abstract view
.subckt sky130_fd_sc_hd__o21ai_4 A1 A2 B1 VGND VNB VPB VPWR Y
.ends

* Black-box entry subcircuit for sky130_fd_sc_hd__or3_2 abstract view
.subckt sky130_fd_sc_hd__or3_2 A B C VGND VNB VPB VPWR X
.ends

* Black-box entry subcircuit for sky130_fd_sc_hd__a32o_1 abstract view
.subckt sky130_fd_sc_hd__a32o_1 A1 A2 A3 B1 B2 VGND VNB VPB VPWR X
.ends

* Black-box entry subcircuit for sky130_fd_sc_hd__or4_2 abstract view
.subckt sky130_fd_sc_hd__or4_2 A B C D VGND VNB VPB VPWR X
.ends

* Black-box entry subcircuit for sky130_fd_sc_hd__nor2_4 abstract view
.subckt sky130_fd_sc_hd__nor2_4 A B VGND VNB VPB VPWR Y
.ends

* Black-box entry subcircuit for sky130_fd_sc_hd__or2b_2 abstract view
.subckt sky130_fd_sc_hd__or2b_2 A B_N VGND VNB VPB VPWR X
.ends

* Black-box entry subcircuit for sky130_fd_sc_hd__or4b_1 abstract view
.subckt sky130_fd_sc_hd__or4b_1 A B C D_N VGND VNB VPB VPWR X
.ends

* Black-box entry subcircuit for sky130_fd_sc_hd__o21bai_4 abstract view
.subckt sky130_fd_sc_hd__o21bai_4 A1 A2 B1_N VGND VNB VPB VPWR Y
.ends

* Black-box entry subcircuit for sky130_fd_sc_hd__nor2_8 abstract view
.subckt sky130_fd_sc_hd__nor2_8 A B VGND VNB VPB VPWR Y
.ends

* Black-box entry subcircuit for sky130_fd_sc_hd__o211ai_2 abstract view
.subckt sky130_fd_sc_hd__o211ai_2 A1 A2 B1 C1 VGND VNB VPB VPWR Y
.ends

* Black-box entry subcircuit for sky130_fd_sc_hd__a32oi_4 abstract view
.subckt sky130_fd_sc_hd__a32oi_4 A1 A2 A3 B1 B2 VGND VNB VPB VPWR Y
.ends

* Black-box entry subcircuit for sky130_fd_sc_hd__buf_2 abstract view
.subckt sky130_fd_sc_hd__buf_2 A VGND VNB VPB VPWR X
.ends

* Black-box entry subcircuit for sky130_fd_sc_hd__inv_6 abstract view
.subckt sky130_fd_sc_hd__inv_6 A VGND VNB VPB VPWR Y
.ends

* Black-box entry subcircuit for sky130_fd_sc_hd__o22ai_1 abstract view
.subckt sky130_fd_sc_hd__o22ai_1 A1 A2 B1 B2 VGND VNB VPB VPWR Y
.ends

* Black-box entry subcircuit for sky130_fd_sc_hd__a311o_1 abstract view
.subckt sky130_fd_sc_hd__a311o_1 A1 A2 A3 B1 C1 VGND VNB VPB VPWR X
.ends

* Black-box entry subcircuit for sky130_fd_sc_hd__a31oi_1 abstract view
.subckt sky130_fd_sc_hd__a31oi_1 A1 A2 A3 B1 VGND VNB VPB VPWR Y
.ends

* Black-box entry subcircuit for sky130_fd_sc_hd__and3_2 abstract view
.subckt sky130_fd_sc_hd__and3_2 A B C VGND VNB VPB VPWR X
.ends

* Black-box entry subcircuit for sky130_fd_sc_hd__o2111a_2 abstract view
.subckt sky130_fd_sc_hd__o2111a_2 A1 A2 B1 C1 D1 VGND VNB VPB VPWR X
.ends

* Black-box entry subcircuit for sky130_fd_sc_hd__a2111o_2 abstract view
.subckt sky130_fd_sc_hd__a2111o_2 A1 A2 B1 C1 D1 VGND VNB VPB VPWR X
.ends

* Black-box entry subcircuit for sky130_fd_sc_hd__a221oi_1 abstract view
.subckt sky130_fd_sc_hd__a221oi_1 A1 A2 B1 B2 C1 VGND VNB VPB VPWR Y
.ends

* Black-box entry subcircuit for sky130_fd_sc_hd__or4bb_1 abstract view
.subckt sky130_fd_sc_hd__or4bb_1 A B C_N D_N VGND VNB VPB VPWR X
.ends

* Black-box entry subcircuit for sky130_fd_sc_hd__o21a_2 abstract view
.subckt sky130_fd_sc_hd__o21a_2 A1 A2 B1 VGND VNB VPB VPWR X
.ends

* Black-box entry subcircuit for sky130_fd_sc_hd__dfstp_1 abstract view
.subckt sky130_fd_sc_hd__dfstp_1 CLK D SET_B VGND VNB VPB VPWR Q
.ends

* Black-box entry subcircuit for sky130_fd_sc_hd__dfxtp_1 abstract view
.subckt sky130_fd_sc_hd__dfxtp_1 CLK D VGND VNB VPB VPWR Q
.ends

* Black-box entry subcircuit for sky130_fd_sc_hd__or3b_1 abstract view
.subckt sky130_fd_sc_hd__or3b_1 A B C_N VGND VNB VPB VPWR X
.ends

* Black-box entry subcircuit for sky130_fd_sc_hd__o22ai_4 abstract view
.subckt sky130_fd_sc_hd__o22ai_4 A1 A2 B1 B2 VGND VNB VPB VPWR Y
.ends

* Black-box entry subcircuit for sky130_fd_sc_hd__nand2b_2 abstract view
.subckt sky130_fd_sc_hd__nand2b_2 A_N B VGND VNB VPB VPWR Y
.ends

* Black-box entry subcircuit for sky130_fd_sc_hd__nand3b_2 abstract view
.subckt sky130_fd_sc_hd__nand3b_2 A_N B C VGND VNB VPB VPWR Y
.ends

* Black-box entry subcircuit for sky130_fd_sc_hd__a2111oi_4 abstract view
.subckt sky130_fd_sc_hd__a2111oi_4 A1 A2 B1 C1 D1 VGND VNB VPB VPWR Y
.ends

* Black-box entry subcircuit for sky130_fd_sc_hd__diode_2 abstract view
.subckt sky130_fd_sc_hd__diode_2 DIODE VGND VNB VPB VPWR
.ends

* Black-box entry subcircuit for sky130_fd_sc_hd__nor4_1 abstract view
.subckt sky130_fd_sc_hd__nor4_1 A B C D VGND VNB VPB VPWR Y
.ends

* Black-box entry subcircuit for sky130_fd_sc_hd__nand2_8 abstract view
.subckt sky130_fd_sc_hd__nand2_8 A B VGND VNB VPB VPWR Y
.ends

.subckt Synthia PWM_o VGND VPWR clk modes octaves pb[0] pb[10] pb[11] pb[12] pb[1]
+ pb[2] pb[3] pb[4] pb[5] pb[6] pb[7] pb[8] pb[9] reset
XTAP_188 VGND VPWR sky130_fd_sc_hd__tapvpwrvgnd_1
XTAP_199 VGND VPWR sky130_fd_sc_hd__tapvpwrvgnd_1
X_3155_ _0301_ _0721_ _0307_ VGND VGND VPWR VPWR _0722_ sky130_fd_sc_hd__a21oi_4
X_2106_ d2.count\[3\] _1733_ _1772_ _1712_ VGND VGND VPWR VPWR _1773_ sky130_fd_sc_hd__a2bb2o_1
X_3086_ _0646_ _0647_ _0651_ _0652_ VGND VGND VPWR VPWR _0653_ sky130_fd_sc_hd__a31o_1
XFILLER_0_89_461 VGND VGND VPWR VPWR sky130_ef_sc_hd__decap_12
X_2037_ _1712_ _1713_ VGND VGND VPWR VPWR _1714_ sky130_fd_sc_hd__nand2_4
XFILLER_0_76_133 VGND VGND VPWR VPWR sky130_fd_sc_hd__decap_6
XFILLER_0_9_411 VGND VGND VPWR VPWR sky130_fd_sc_hd__fill_1
XFILLER_0_91_125 VGND VGND VPWR VPWR sky130_fd_sc_hd__fill_1
X_3988_ _1546_ _1547_ VGND VGND VPWR VPWR _1548_ sky130_fd_sc_hd__and2_1
XFILLER_0_9_455 VGND VGND VPWR VPWR sky130_fd_sc_hd__decap_6
XFILLER_0_57_391 VGND VGND VPWR VPWR sky130_fd_sc_hd__fill_1
X_2939_ _1735_ d8.count\[5\] _1988_ _1986_ _0537_ VGND VGND VPWR VPWR _0538_ sky130_fd_sc_hd__o2111a_1
XFILLER_0_72_383 VGND VGND VPWR VPWR sky130_ef_sc_hd__decap_12
XFILLER_0_72_361 VGND VGND VPWR VPWR sky130_fd_sc_hd__decap_3
XFILLER_0_32_214 VGND VGND VPWR VPWR sky130_ef_sc_hd__decap_12
XFILLER_0_67_111 VGND VGND VPWR VPWR sky130_fd_sc_hd__fill_1
XFILLER_0_67_155 VGND VGND VPWR VPWR sky130_ef_sc_hd__decap_12
XFILLER_0_67_177 VGND VGND VPWR VPWR sky130_fd_sc_hd__fill_1
XFILLER_0_70_309 VGND VGND VPWR VPWR sky130_fd_sc_hd__fill_2
XFILLER_0_36_553 VGND VGND VPWR VPWR sky130_fd_sc_hd__decap_3
XFILLER_0_48_15 VGND VGND VPWR VPWR sky130_ef_sc_hd__decap_12
XFILLER_0_3_39 VGND VGND VPWR VPWR sky130_fd_sc_hd__decap_8
Xwire18 net19 VGND VGND VPWR VPWR net18 sky130_fd_sc_hd__clkbuf_2
XFILLER_0_86_475 VGND VGND VPWR VPWR sky130_fd_sc_hd__fill_1
X_3911_ _1385_ _1389_ VGND VGND VPWR VPWR _1471_ sky130_fd_sc_hd__nor2_1
XFILLER_0_73_125 VGND VGND VPWR VPWR sky130_ef_sc_hd__decap_12
X_3842_ d1.saw_temp\[6\] _0330_ VGND VGND VPWR VPWR _1403_ sky130_fd_sc_hd__nand2_1
XFILLER_0_73_169 VGND VGND VPWR VPWR sky130_ef_sc_hd__decap_12
XFILLER_0_73_158 VGND VGND VPWR VPWR sky130_fd_sc_hd__fill_1
XFILLER_0_6_425 VGND VGND VPWR VPWR sky130_ef_sc_hd__decap_12
XFILLER_0_14_214 VGND VGND VPWR VPWR sky130_fd_sc_hd__fill_2
XFILLER_0_6_469 VGND VGND VPWR VPWR sky130_fd_sc_hd__fill_2
X_3773_ _1710_ net61 _0782_ em0.u1.R\[13\] _1334_ VGND VGND VPWR VPWR _0101_ sky130_fd_sc_hd__a221o_1
XFILLER_0_89_55 VGND VGND VPWR VPWR sky130_fd_sc_hd__fill_1
X_2724_ _0363_ _0367_ _0382_ VGND VGND VPWR VPWR _0383_ sky130_fd_sc_hd__o21a_1
X_2655_ p0.count\[1\] VGND VGND VPWR VPWR _0317_ sky130_fd_sc_hd__inv_2
XFILLER_0_1_163 VGND VGND VPWR VPWR sky130_fd_sc_hd__decap_4
X_2586_ d13.count\[0\] d13.count\[1\] VGND VGND VPWR VPWR _0268_ sky130_fd_sc_hd__nand2_1
X_4325_ clknet_leaf_6_clk _0048_ net35 VGND VGND VPWR VPWR d6.saw_temp\[0\] sky130_fd_sc_hd__dfrtp_4
X_4256_ clknet_leaf_33_clk _0019_ net27 VGND VGND VPWR VPWR d2.saw_temp\[3\] sky130_fd_sc_hd__dfrtp_4
X_4187_ _1705_ _1706_ VGND VGND VPWR VPWR _1707_ sky130_fd_sc_hd__and2_1
X_3207_ _0760_ _0768_ _0772_ _0773_ VGND VGND VPWR VPWR _0774_ sky130_fd_sc_hd__a31o_1
X_3138_ d8.saw_temp\[7\] _0301_ _0337_ _0307_ VGND VGND VPWR VPWR _0705_ sky130_fd_sc_hd__a31o_2
XFILLER_0_77_420 VGND VGND VPWR VPWR sky130_fd_sc_hd__fill_2
X_3069_ d13.saw_temp\[4\] d13.saw_temp\[2\] d13.saw_temp\[1\] _0344_ VGND VGND VPWR
+ VPWR _0636_ sky130_fd_sc_hd__o31a_1
XFILLER_0_92_401 VGND VGND VPWR VPWR sky130_ef_sc_hd__decap_12
XFILLER_0_37_306 VGND VGND VPWR VPWR sky130_ef_sc_hd__decap_12
XFILLER_0_92_445 VGND VGND VPWR VPWR sky130_ef_sc_hd__decap_12
XFILLER_0_18_553 VGND VGND VPWR VPWR sky130_fd_sc_hd__decap_3
XFILLER_0_52_309 VGND VGND VPWR VPWR sky130_ef_sc_hd__decap_12
XFILLER_0_92_489 VGND VGND VPWR VPWR sky130_ef_sc_hd__decap_12
XFILLER_0_60_386 VGND VGND VPWR VPWR sky130_fd_sc_hd__fill_1
Xhold170 d5.saw_temp\[2\] VGND VGND VPWR VPWR net221 sky130_fd_sc_hd__dlygate4sd3_1
Xhold181 d3.count\[4\] VGND VGND VPWR VPWR net232 sky130_fd_sc_hd__dlygate4sd3_1
Xhold192 d3.saw_temp\[3\] VGND VGND VPWR VPWR net243 sky130_fd_sc_hd__dlygate4sd3_1
XFILLER_0_18_29 VGND VGND VPWR VPWR sky130_fd_sc_hd__decap_3
XFILLER_0_87_239 VGND VGND VPWR VPWR sky130_fd_sc_hd__fill_2
XFILLER_0_28_306 VGND VGND VPWR VPWR sky130_fd_sc_hd__fill_2
XFILLER_0_28_339 VGND VGND VPWR VPWR sky130_ef_sc_hd__decap_12
XFILLER_0_55_125 VGND VGND VPWR VPWR sky130_ef_sc_hd__decap_12
XFILLER_0_68_497 VGND VGND VPWR VPWR sky130_fd_sc_hd__fill_1
XFILLER_0_50_27 VGND VGND VPWR VPWR sky130_fd_sc_hd__fill_1
XFILLER_0_70_106 VGND VGND VPWR VPWR sky130_fd_sc_hd__decap_6
XFILLER_0_55_169 VGND VGND VPWR VPWR sky130_ef_sc_hd__decap_12
XFILLER_0_70_139 VGND VGND VPWR VPWR sky130_fd_sc_hd__fill_1
XFILLER_0_24_545 VGND VGND VPWR VPWR sky130_fd_sc_hd__decap_8
X_2440_ _0152_ _0153_ VGND VGND VPWR VPWR d9.nxt_count\[5\] sky130_fd_sc_hd__nor2_1
XFILLER_0_59_69 VGND VGND VPWR VPWR sky130_fd_sc_hd__decap_8
X_2371_ _1720_ _1981_ d8.count\[3\] VGND VGND VPWR VPWR _1982_ sky130_fd_sc_hd__a21oi_1
X_4110_ net128 _0782_ _1662_ _1710_ VGND VGND VPWR VPWR _0110_ sky130_fd_sc_hd__a22o_1
XFILLER_0_75_68 VGND VGND VPWR VPWR sky130_fd_sc_hd__decap_4
XFILLER_0_75_57 VGND VGND VPWR VPWR sky130_fd_sc_hd__decap_3
X_4041_ _1598_ _1599_ _1596_ VGND VGND VPWR VPWR _1600_ sky130_fd_sc_hd__o21ai_1
XFILLER_0_93_209 VGND VGND VPWR VPWR sky130_fd_sc_hd__fill_1
XFILLER_0_59_497 VGND VGND VPWR VPWR sky130_fd_sc_hd__decap_6
X_3825_ d10.saw_temp\[7\] _0672_ _0674_ d10.saw_temp\[5\] VGND VGND VPWR VPWR _1386_
+ sky130_fd_sc_hd__o22a_1
XFILLER_0_15_501 VGND VGND VPWR VPWR sky130_fd_sc_hd__decap_3
XFILLER_0_6_277 VGND VGND VPWR VPWR sky130_fd_sc_hd__decap_6
XFILLER_0_61_139 VGND VGND VPWR VPWR sky130_fd_sc_hd__fill_1
X_3756_ _1206_ _1208_ VGND VGND VPWR VPWR _1318_ sky130_fd_sc_hd__and2_1
X_2707_ _0366_ _0332_ _0331_ VGND VGND VPWR VPWR _0367_ sky130_fd_sc_hd__and3b_1
XFILLER_0_71_3 VGND VGND VPWR VPWR sky130_ef_sc_hd__decap_12
XFILLER_0_42_397 VGND VGND VPWR VPWR sky130_fd_sc_hd__fill_1
X_3687_ _1247_ _1248_ VGND VGND VPWR VPWR _1249_ sky130_fd_sc_hd__nor2_1
X_2638_ m0.edgo.delay m0.edgo.in VGND VGND VPWR VPWR _0302_ sky130_fd_sc_hd__and2b_1
XFILLER_0_2_461 VGND VGND VPWR VPWR sky130_ef_sc_hd__decap_12
XFILLER_0_10_261 VGND VGND VPWR VPWR sky130_fd_sc_hd__fill_2
X_2569_ _0253_ VGND VGND VPWR VPWR d12.nxt_count\[7\] sky130_fd_sc_hd__clkbuf_1
X_4308_ clknet_leaf_19_clk _0041_ net39 VGND VGND VPWR VPWR d5.saw_temp\[1\] sky130_fd_sc_hd__dfrtp_2
X_4239_ clknet_leaf_32_clk _0012_ net27 VGND VGND VPWR VPWR d13.saw_temp\[4\] sky130_fd_sc_hd__dfrtp_2
XFILLER_0_92_231 VGND VGND VPWR VPWR sky130_fd_sc_hd__fill_1
XFILLER_0_65_434 VGND VGND VPWR VPWR sky130_ef_sc_hd__decap_12
XFILLER_0_60_150 VGND VGND VPWR VPWR sky130_fd_sc_hd__fill_1
XFILLER_0_45_27 VGND VGND VPWR VPWR sky130_ef_sc_hd__decap_12
XFILLER_0_0_29 VGND VGND VPWR VPWR sky130_ef_sc_hd__decap_12
XFILLER_0_61_15 VGND VGND VPWR VPWR sky130_ef_sc_hd__decap_12
XFILLER_0_8_509 VGND VGND VPWR VPWR sky130_ef_sc_hd__decap_12
XFILLER_0_56_412 VGND VGND VPWR VPWR sky130_fd_sc_hd__decap_8
X_3610_ _0681_ _1172_ VGND VGND VPWR VPWR _1173_ sky130_fd_sc_hd__or2_1
XFILLER_0_9_27 VGND VGND VPWR VPWR sky130_ef_sc_hd__decap_12
XFILLER_0_36_180 VGND VGND VPWR VPWR sky130_fd_sc_hd__decap_8
XFILLER_0_3_225 VGND VGND VPWR VPWR sky130_fd_sc_hd__fill_2
XFILLER_0_24_331 VGND VGND VPWR VPWR sky130_ef_sc_hd__decap_12
X_3541_ _1102_ _1104_ VGND VGND VPWR VPWR _1105_ sky130_fd_sc_hd__xnor2_1
XFILLER_0_10_41 VGND VGND VPWR VPWR sky130_ef_sc_hd__decap_12
XFILLER_0_24_397 VGND VGND VPWR VPWR sky130_fd_sc_hd__decap_4
XFILLER_0_10_85 VGND VGND VPWR VPWR sky130_ef_sc_hd__decap_12
X_3472_ _1034_ _1035_ _0646_ VGND VGND VPWR VPWR _1036_ sky130_fd_sc_hd__mux2_1
X_2423_ d9.count\[0\] d9.count\[1\] VGND VGND VPWR VPWR _2024_ sky130_fd_sc_hd__or2_1
X_2354_ net181 _1966_ _1959_ VGND VGND VPWR VPWR _1970_ sky130_fd_sc_hd__o21ai_1
XFILLER_0_19_61 VGND VGND VPWR VPWR sky130_fd_sc_hd__fill_1
X_2285_ d6.count\[5\] _1910_ _1724_ VGND VGND VPWR VPWR _1914_ sky130_fd_sc_hd__a21oi_1
X_4024_ _1536_ _1538_ _1582_ VGND VGND VPWR VPWR _1583_ sky130_fd_sc_hd__o21a_1
XFILLER_0_19_125 VGND VGND VPWR VPWR sky130_fd_sc_hd__decap_6
XFILLER_0_47_445 VGND VGND VPWR VPWR sky130_fd_sc_hd__decap_3
XFILLER_0_59_294 VGND VGND VPWR VPWR sky130_fd_sc_hd__decap_3
XFILLER_0_74_253 VGND VGND VPWR VPWR sky130_fd_sc_hd__fill_2
XFILLER_0_19_169 VGND VGND VPWR VPWR sky130_ef_sc_hd__decap_12
XFILLER_0_51_70 VGND VGND VPWR VPWR sky130_ef_sc_hd__decap_12
X_3808_ _1368_ VGND VGND VPWR VPWR _1369_ sky130_fd_sc_hd__inv_2
XFILLER_0_74_286 VGND VGND VPWR VPWR sky130_fd_sc_hd__fill_1
XFILLER_0_7_553 VGND VGND VPWR VPWR sky130_fd_sc_hd__decap_3
X_3739_ _1189_ _1191_ _1300_ VGND VGND VPWR VPWR _1301_ sky130_fd_sc_hd__a21o_1
XFILLER_0_85_529 VGND VGND VPWR VPWR sky130_ef_sc_hd__decap_12
XFILLER_0_93_551 VGND VGND VPWR VPWR sky130_fd_sc_hd__fill_1
XFILLER_0_65_242 VGND VGND VPWR VPWR sky130_ef_sc_hd__decap_12
XFILLER_0_80_267 VGND VGND VPWR VPWR sky130_fd_sc_hd__fill_1
XFILLER_0_21_378 VGND VGND VPWR VPWR sky130_fd_sc_hd__fill_2
XTAP_507 VGND VPWR sky130_fd_sc_hd__tapvpwrvgnd_1
XTAP_518 VGND VPWR sky130_fd_sc_hd__tapvpwrvgnd_1
XTAP_529 VGND VPWR sky130_fd_sc_hd__tapvpwrvgnd_1
XFILLER_0_56_15 VGND VGND VPWR VPWR sky130_ef_sc_hd__decap_12
XFILLER_0_56_59 VGND VGND VPWR VPWR sky130_fd_sc_hd__decap_4
X_2070_ d1.count\[0\] d1.count\[1\] VGND VGND VPWR VPWR _1746_ sky130_fd_sc_hd__nand2_1
XFILLER_0_88_345 VGND VGND VPWR VPWR sky130_ef_sc_hd__decap_12
X_2972_ _0560_ _0562_ VGND VGND VPWR VPWR _0563_ sky130_fd_sc_hd__or2_1
XFILLER_0_8_339 VGND VGND VPWR VPWR sky130_fd_sc_hd__fill_2
XFILLER_0_4_501 VGND VGND VPWR VPWR sky130_ef_sc_hd__decap_12
XFILLER_0_21_51 VGND VGND VPWR VPWR sky130_fd_sc_hd__decap_4
XFILLER_0_21_73 VGND VGND VPWR VPWR sky130_fd_sc_hd__fill_1
XFILLER_0_4_545 VGND VGND VPWR VPWR sky130_fd_sc_hd__decap_8
X_3524_ _0750_ _1087_ _0875_ VGND VGND VPWR VPWR _1088_ sky130_fd_sc_hd__a21oi_2
X_3455_ _0920_ _0924_ _0931_ VGND VGND VPWR VPWR _1019_ sky130_fd_sc_hd__o21a_1
X_2406_ d8.count\[8\] _2006_ VGND VGND VPWR VPWR _2009_ sky130_fd_sc_hd__xnor2_1
X_3386_ d9.saw_temp\[2\] _0335_ VGND VGND VPWR VPWR _0951_ sky130_fd_sc_hd__nand2_1
X_2337_ _1721_ d7.count\[7\] d7.count\[8\] _1805_ VGND VGND VPWR VPWR _1957_ sky130_fd_sc_hd__o22ai_2
XFILLER_0_34_3 VGND VGND VPWR VPWR sky130_ef_sc_hd__decap_12
X_2268_ net194 _1898_ _1888_ VGND VGND VPWR VPWR _1901_ sky130_fd_sc_hd__o21ai_1
XFILLER_0_79_312 VGND VGND VPWR VPWR sky130_fd_sc_hd__fill_2
X_4007_ _1565_ _1522_ VGND VGND VPWR VPWR _1566_ sky130_fd_sc_hd__or2_1
X_2199_ d4.count\[2\] _1724_ _1843_ d4.count\[7\] _1845_ VGND VGND VPWR VPWR _1846_
+ sky130_fd_sc_hd__o221a_1
XFILLER_0_62_256 VGND VGND VPWR VPWR sky130_fd_sc_hd__fill_2
XFILLER_0_22_109 VGND VGND VPWR VPWR sky130_ef_sc_hd__decap_12
XFILLER_0_62_289 VGND VGND VPWR VPWR sky130_fd_sc_hd__fill_2
XFILLER_0_30_153 VGND VGND VPWR VPWR sky130_ef_sc_hd__decap_12
Xhold30 p0.count\[7\] VGND VGND VPWR VPWR net81 sky130_fd_sc_hd__dlygate4sd3_1
Xhold41 em0.u1.Q\[1\] VGND VGND VPWR VPWR net92 sky130_fd_sc_hd__dlygate4sd3_1
Xhold74 d9.saw_temp\[3\] VGND VGND VPWR VPWR net125 sky130_fd_sc_hd__dlygate4sd3_1
XFILLER_0_26_29 VGND VGND VPWR VPWR sky130_ef_sc_hd__decap_12
Xhold63 d3.saw_temp\[6\] VGND VGND VPWR VPWR net114 sky130_fd_sc_hd__dlygate4sd3_1
Xhold52 em0.u1.Q\[3\] VGND VGND VPWR VPWR net103 sky130_fd_sc_hd__dlygate4sd3_1
Xhold85 d11.saw_temp\[3\] VGND VGND VPWR VPWR net136 sky130_fd_sc_hd__dlygate4sd3_1
Xhold96 em0.u1.D\[8\] VGND VGND VPWR VPWR net147 sky130_fd_sc_hd__dlygate4sd3_1
XFILLER_0_85_337 VGND VGND VPWR VPWR sky130_fd_sc_hd__decap_4
XFILLER_0_38_253 VGND VGND VPWR VPWR sky130_fd_sc_hd__decap_6
XTAP_315 VGND VPWR sky130_fd_sc_hd__tapvpwrvgnd_1
XTAP_304 VGND VPWR sky130_fd_sc_hd__tapvpwrvgnd_1