*SPEF "ieee 1481-1999"
*DESIGN "stopwatch"
*DATE "11:11:11 Fri 11 11, 1111"
*VENDOR "OpenRCX"
*PROGRAM "Parallel Extraction"
*VERSION "1.0"
*DESIGN_FLOW "NAME_SCOPE LOCAL" "PIN_CAP NONE"
*DIVIDER /
*DELIMITER :
*BUS_DELIMITER []
*T_UNIT 1 NS
*C_UNIT 1 PF
*R_UNIT 1 OHM
*L_UNIT 1 HENRY

*NAME_MAP
*3 clk
*4 nrst
*5 out_0[0]
*6 out_0[1]
*7 out_0[2]
*8 out_0[3]
*9 out_0[4]
*10 out_0[5]
*11 out_0[6]
*12 out_1[0]
*13 out_1[1]
*14 out_1[2]
*15 out_1[3]
*16 out_1[4]
*17 out_1[5]
*18 out_1[6]
*19 out_2[0]
*20 out_2[1]
*21 out_2[2]
*22 out_2[3]
*23 out_2[4]
*24 out_2[5]
*25 out_2[6]
*26 out_3[0]
*27 out_3[1]
*28 out_3[2]
*29 out_3[3]
*30 out_3[4]
*31 out_3[5]
*32 out_3[6]
*33 pb_0
*34 pb_1
*35 time_done
*36 CLKDIV\.count\[0\]
*37 CLKDIV\.count\[10\]
*38 CLKDIV\.count\[11\]
*39 CLKDIV\.count\[12\]
*40 CLKDIV\.count\[13\]
*41 CLKDIV\.count\[14\]
*42 CLKDIV\.count\[15\]
*43 CLKDIV\.count\[16\]
*44 CLKDIV\.count\[17\]
*45 CLKDIV\.count\[18\]
*46 CLKDIV\.count\[19\]
*47 CLKDIV\.count\[1\]
*48 CLKDIV\.count\[20\]
*49 CLKDIV\.count\[21\]
*50 CLKDIV\.count\[22\]
*51 CLKDIV\.count\[23\]
*52 CLKDIV\.count\[2\]
*53 CLKDIV\.count\[3\]
*54 CLKDIV\.count\[4\]
*55 CLKDIV\.count\[5\]
*56 CLKDIV\.count\[6\]
*57 CLKDIV\.count\[7\]
*58 CLKDIV\.count\[8\]
*59 CLKDIV\.count\[9\]
*60 CLKDIV\.secpulse
*61 CTR\.minutes
*62 CTR\.time_out\[0\]
*63 CTR\.time_out\[10\]
*64 CTR\.time_out\[11\]
*65 CTR\.time_out\[1\]
*66 CTR\.time_out\[2\]
*67 CTR\.time_out\[3\]
*68 CTR\.time_out\[4\]
*69 CTR\.time_out\[5\]
*70 CTR\.time_out\[6\]
*71 CTR\.time_out\[7\]
*72 CTR\.time_out\[8\]
*73 CTR\.time_out\[9\]
*74 FSM\.next_state\[0\]
*75 FSM\.next_state\[1\]
*76 FSM\.next_state\[2\]
*77 FSM\.next_state\[3\]
*78 FSM\.state\[0\]
*79 FSM\.state\[1\]
*80 FSM\.state\[2\]
*81 FSM\.state\[3\]
*82 MEM\.addr\[0\]
*83 MEM\.addr\[1\]
*84 MEM\.addr\[2\]
*85 MEM\.mem1\[0\]
*86 MEM\.mem1\[10\]
*87 MEM\.mem1\[11\]
*88 MEM\.mem1\[1\]
*89 MEM\.mem1\[2\]
*90 MEM\.mem1\[3\]
*91 MEM\.mem1\[4\]
*92 MEM\.mem1\[5\]
*93 MEM\.mem1\[6\]
*94 MEM\.mem1\[7\]
*95 MEM\.mem1\[8\]
*96 MEM\.mem1\[9\]
*97 MEM\.mem2\[0\]
*98 MEM\.mem2\[10\]
*99 MEM\.mem2\[11\]
*100 MEM\.mem2\[1\]
*101 MEM\.mem2\[2\]
*102 MEM\.mem2\[3\]
*103 MEM\.mem2\[4\]
*104 MEM\.mem2\[5\]
*105 MEM\.mem2\[6\]
*106 MEM\.mem2\[7\]
*107 MEM\.mem2\[8\]
*108 MEM\.mem2\[9\]
*109 MEM\.mem3\[0\]
*110 MEM\.mem3\[10\]
*111 MEM\.mem3\[11\]
*112 MEM\.mem3\[1\]
*113 MEM\.mem3\[2\]
*114 MEM\.mem3\[3\]
*115 MEM\.mem3\[4\]
*116 MEM\.mem3\[5\]
*117 MEM\.mem3\[6\]
*118 MEM\.mem3\[7\]
*119 MEM\.mem3\[8\]
*120 MEM\.mem3\[9\]
*121 MEM\.mem4\[0\]
*122 MEM\.mem4\[10\]
*123 MEM\.mem4\[11\]
*124 MEM\.mem4\[1\]
*125 MEM\.mem4\[2\]
*126 MEM\.mem4\[3\]
*127 MEM\.mem4\[4\]
*128 MEM\.mem4\[5\]
*129 MEM\.mem4\[6\]
*130 MEM\.mem4\[7\]
*131 MEM\.mem4\[8\]
*132 MEM\.mem4\[9\]
*133 MEM\.mem5\[0\]
*134 MEM\.mem5\[10\]
*135 MEM\.mem5\[11\]
*136 MEM\.mem5\[1\]
*137 MEM\.mem5\[2\]
*138 MEM\.mem5\[3\]
*139 MEM\.mem5\[4\]
*140 MEM\.mem5\[5\]
*141 MEM\.mem5\[6\]
*142 MEM\.mem5\[7\]
*143 MEM\.mem5\[8\]
*144 MEM\.mem5\[9\]
*145 MEM\.next_mem1\[0\]
*146 MEM\.next_mem1\[10\]
*147 MEM\.next_mem1\[11\]
*148 MEM\.next_mem1\[1\]
*149 MEM\.next_mem1\[2\]
*150 MEM\.next_mem1\[3\]
*151 MEM\.next_mem1\[4\]
*152 MEM\.next_mem1\[5\]
*153 MEM\.next_mem1\[6\]
*154 MEM\.next_mem1\[7\]
*155 MEM\.next_mem1\[8\]
*156 MEM\.next_mem1\[9\]
*157 MEM\.next_mem2\[0\]
*158 MEM\.next_mem2\[10\]
*159 MEM\.next_mem2\[11\]
*160 MEM\.next_mem2\[1\]
*161 MEM\.next_mem2\[2\]
*162 MEM\.next_mem2\[3\]
*163 MEM\.next_mem2\[4\]
*164 MEM\.next_mem2\[5\]
*165 MEM\.next_mem2\[6\]
*166 MEM\.next_mem2\[7\]
*167 MEM\.next_mem2\[8\]
*168 MEM\.next_mem2\[9\]
*169 MEM\.next_mem3\[0\]
*170 MEM\.next_mem3\[10\]
*171 MEM\.next_mem3\[11\]
*172 MEM\.next_mem3\[1\]
*173 MEM\.next_mem3\[2\]
*174 MEM\.next_mem3\[3\]
*175 MEM\.next_mem3\[4\]
*176 MEM\.next_mem3\[5\]
*177 MEM\.next_mem3\[6\]
*178 MEM\.next_mem3\[7\]
*179 MEM\.next_mem3\[8\]
*180 MEM\.next_mem3\[9\]
*181 MEM\.next_mem4\[0\]
*182 MEM\.next_mem4\[10\]
*183 MEM\.next_mem4\[11\]
*184 MEM\.next_mem4\[1\]
*185 MEM\.next_mem4\[2\]
*186 MEM\.next_mem4\[3\]
*187 MEM\.next_mem4\[4\]
*188 MEM\.next_mem4\[5\]
*189 MEM\.next_mem4\[6\]
*190 MEM\.next_mem4\[7\]
*191 MEM\.next_mem4\[8\]
*192 MEM\.next_mem4\[9\]
*193 MEM\.next_mem5\[0\]
*194 MEM\.next_mem5\[10\]
*195 MEM\.next_mem5\[11\]
*196 MEM\.next_mem5\[1\]
*197 MEM\.next_mem5\[2\]
*198 MEM\.next_mem5\[3\]
*199 MEM\.next_mem5\[4\]
*200 MEM\.next_mem5\[5\]
*201 MEM\.next_mem5\[6\]
*202 MEM\.next_mem5\[7\]
*203 MEM\.next_mem5\[8\]
*204 MEM\.next_mem5\[9\]
*205 MEM\.raddr\[0\]
*206 MEM\.raddr\[1\]
*207 MEM\.raddr\[2\]
*208 TIM\.cnt\[0\]
*209 TIM\.cnt\[10\]
*210 TIM\.cnt\[11\]
*211 TIM\.cnt\[1\]
*212 TIM\.cnt\[2\]
*213 TIM\.cnt\[3\]
*214 TIM\.cnt\[4\]
*215 TIM\.cnt\[5\]
*216 TIM\.cnt\[6\]
*217 TIM\.cnt\[7\]
*218 TIM\.cnt\[8\]
*219 TIM\.cnt\[9\]
*220 _0000_
*221 _0001_
*222 _0002_
*223 _0003_
*224 _0004_
*225 _0005_
*226 _0006_
*227 _0007_
*228 _0008_
*229 _0009_
*230 _0010_
*231 _0011_
*232 _0012_
*233 _0013_
*234 _0014_
*235 _0015_
*236 _0016_
*237 _0017_
*238 _0018_
*239 _0019_
*240 _0020_
*241 _0021_
*242 _0022_
*243 _0023_
*244 _0024_
*245 _0025_
*246 _0026_
*247 _0027_
*248 _0028_
*249 _0029_
*250 _0030_
*251 _0031_
*252 _0032_
*253 _0033_
*254 _0034_
*255 _0035_
*256 _0036_
*257 _0037_
*258 _0038_
*259 _0039_
*260 _0040_
*261 _0041_
*262 _0042_
*263 _0043_
*264 _0044_
*265 _0045_
*266 _0046_
*267 _0047_
*268 _0048_
*269 _0049_
*270 _0050_
*271 _0051_
*272 _0052_
*273 _0053_
*274 _0054_
*275 _0055_
*276 _0056_
*277 _0057_
*278 _0058_
*279 _0059_
*280 _0060_
*281 _0061_
*282 _0062_
*283 _0063_
*284 _0064_
*285 _0065_
*286 _0066_
*287 _0067_
*288 _0068_
*289 _0069_
*290 _0070_
*291 _0071_
*292 _0072_
*293 _0073_
*294 _0074_
*295 _0075_
*296 _0076_
*297 _0077_
*298 _0078_
*299 _0079_
*300 _0080_
*301 _0081_
*302 _0082_
*303 _0083_
*304 _0084_
*305 _0085_
*306 _0086_
*307 _0087_
*308 _0088_
*309 _0089_
*310 _0090_
*311 _0091_
*312 _0092_
*313 _0093_
*314 _0094_
*315 _0095_
*316 _0096_
*317 _0097_
*318 _0098_
*319 _0099_
*320 _0100_
*321 _0101_
*322 _0102_
*323 _0103_
*324 _0104_
*325 _0105_
*326 _0106_
*327 _0107_
*328 _0108_
*329 _0109_
*330 _0110_
*331 _0111_
*332 _0112_
*333 _0113_
*334 _0114_
*335 _0115_
*336 _0116_
*337 _0117_
*338 _0118_
*339 _0119_
*340 _0120_
*341 _0121_
*342 _0122_
*343 _0123_
*344 _0124_
*345 _0125_
*346 _0126_
*347 _0127_
*348 _0128_
*349 _0129_
*350 _0130_
*351 _0131_
*352 _0132_
*353 _0133_
*354 _0134_
*355 _0135_
*356 _0136_
*357 _0137_
*358 _0138_
*359 _0139_
*360 _0140_
*361 _0141_
*362 _0142_
*363 _0143_
*364 _0144_
*365 _0145_
*366 _0146_
*367 _0147_
*368 _0148_
*369 _0149_
*370 _0150_
*371 _0151_
*372 _0152_
*373 _0153_
*374 _0154_
*375 _0155_
*376 _0156_
*377 _0157_
*378 _0158_
*379 _0159_
*380 _0160_
*381 _0161_
*382 _0162_
*383 _0163_
*384 _0164_
*385 _0165_
*386 _0166_
*387 _0167_
*388 _0168_
*389 _0169_
*390 _0170_
*391 _0171_
*392 _0172_
*393 _0173_
*394 _0174_
*395 _0175_
*396 _0176_
*397 _0177_
*398 _0178_
*399 _0179_
*400 _0180_
*401 _0181_
*402 _0182_
*403 _0183_
*404 _0184_
*405 _0185_
*406 _0186_
*407 _0187_
*408 _0188_
*409 _0189_
*410 _0190_
*411 _0191_
*412 _0192_
*413 _0193_
*414 _0194_
*415 _0195_
*416 _0196_
*417 _0197_
*418 _0198_
*419 _0199_
*420 _0200_
*421 _0201_
*422 _0202_
*423 _0203_
*424 _0204_
*425 _0205_
*426 _0206_
*427 _0207_
*428 _0208_
*429 _0209_
*430 _0210_
*431 _0211_
*432 _0212_
*433 _0213_
*434 _0214_
*435 _0215_
*436 _0216_
*437 _0217_
*438 _0218_
*439 _0219_
*440 _0220_
*441 _0221_
*442 _0222_
*443 _0223_
*444 _0224_
*445 _0225_
*446 _0226_
*447 _0227_
*448 _0228_
*449 _0229_
*450 _0230_
*451 _0231_
*452 _0232_
*453 _0233_
*454 _0234_
*455 _0235_
*456 _0236_
*457 _0237_
*458 _0238_
*459 _0239_
*460 _0240_
*461 _0241_
*462 _0242_
*463 _0243_
*464 _0244_
*465 _0245_
*466 _0246_
*467 _0247_
*468 _0248_
*469 _0249_
*470 _0250_
*471 _0251_
*472 _0252_
*473 _0253_
*474 _0254_
*475 _0255_
*476 _0256_
*477 _0257_
*478 _0258_
*479 _0259_
*480 _0260_
*481 _0261_
*482 _0262_
*483 _0263_
*484 _0264_
*485 _0265_
*486 _0266_
*487 _0267_
*488 _0268_
*489 _0269_
*490 _0270_
*491 _0271_
*492 _0272_
*493 _0273_
*494 _0274_
*495 _0275_
*496 _0276_
*497 _0277_
*498 _0278_
*499 _0279_
*500 _0280_
*501 _0281_
*502 _0282_
*503 _0283_
*504 _0284_
*505 _0285_
*506 _0286_
*507 _0287_
*508 _0288_
*509 _0289_
*510 _0290_
*511 _0291_
*512 _0292_
*513 _0293_
*514 _0294_
*515 _0295_
*516 _0296_
*517 _0297_
*518 _0298_
*519 _0299_
*520 _0300_
*521 _0301_
*522 _0302_
*523 _0303_
*524 _0304_
*525 _0305_
*526 _0306_
*527 _0307_
*528 _0308_
*529 _0309_
*530 _0310_
*531 _0311_
*532 _0312_
*533 _0313_
*534 _0314_
*535 _0315_
*536 _0316_
*537 _0317_
*538 _0318_
*539 _0319_
*540 _0320_
*541 _0321_
*542 _0322_
*543 _0323_
*544 _0324_
*545 _0325_
*546 _0326_
*547 _0327_
*548 _0328_
*549 _0329_
*550 _0330_
*551 _0331_
*552 _0332_
*553 _0333_
*554 _0334_
*555 _0335_
*556 _0336_
*557 _0337_
*558 _0338_
*559 _0339_
*560 _0340_
*561 _0341_
*562 _0342_
*563 _0343_
*564 _0344_
*565 _0345_
*566 _0346_
*567 _0347_
*568 _0348_
*569 _0349_
*570 _0350_
*571 _0351_
*572 _0352_
*573 _0353_
*574 _0354_
*575 _0355_
*576 _0356_
*577 _0357_
*578 _0358_
*579 _0359_
*580 _0360_
*581 _0361_
*582 _0362_
*583 _0363_
*584 _0364_
*585 _0365_
*586 _0366_
*587 _0367_
*588 _0368_
*589 _0369_
*590 _0370_
*591 _0371_
*592 _0372_
*593 _0373_
*594 _0374_
*595 _0375_
*596 _0376_
*597 _0377_
*598 _0378_
*599 _0379_
*600 _0380_
*601 _0381_
*602 _0382_
*603 _0383_
*604 _0384_
*605 _0385_
*606 _0386_
*607 _0387_
*608 _0388_
*609 _0389_
*610 _0390_
*611 _0391_
*612 _0392_
*613 _0393_
*614 _0394_
*615 _0395_
*616 _0396_
*617 _0397_
*618 _0398_
*619 _0399_
*620 _0400_
*621 _0401_
*622 _0402_
*623 _0403_
*624 _0404_
*625 _0405_
*626 _0406_
*627 _0407_
*628 _0408_
*629 _0409_
*630 _0410_
*631 _0411_
*632 _0412_
*633 _0413_
*634 _0414_
*635 _0415_
*636 _0416_
*637 _0417_
*638 _0418_
*639 _0419_
*640 _0420_
*641 _0421_
*642 _0422_
*643 _0423_
*644 _0424_
*645 _0425_
*646 _0426_
*647 _0427_
*648 _0428_
*649 _0429_
*650 _0430_
*651 _0431_
*652 _0432_
*653 _0433_
*654 _0434_
*655 _0435_
*656 _0436_
*657 _0437_
*658 _0438_
*659 _0439_
*660 _0440_
*661 _0441_
*662 _0442_
*663 _0443_
*664 _0444_
*665 _0445_
*666 _0446_
*667 _0447_
*668 _0448_
*669 _0449_
*670 _0450_
*671 _0451_
*672 _0452_
*673 _0453_
*674 _0454_
*675 _0455_
*676 _0456_
*677 _0457_
*678 _0458_
*679 _0459_
*680 _0460_
*681 _0461_
*682 clknet_0_clk
*683 clknet_4_0_0_clk
*684 clknet_4_10_0_clk
*685 clknet_4_11_0_clk
*686 clknet_4_12_0_clk
*687 clknet_4_13_0_clk
*688 clknet_4_14_0_clk
*689 clknet_4_15_0_clk
*690 clknet_4_1_0_clk
*691 clknet_4_2_0_clk
*692 clknet_4_3_0_clk
*693 clknet_4_4_0_clk
*694 clknet_4_5_0_clk
*695 clknet_4_6_0_clk
*696 clknet_4_7_0_clk
*697 clknet_4_8_0_clk
*698 clknet_4_9_0_clk
*699 e1\.edge_d
*700 e1\.intermediate
*701 e1\.sync
*702 e2\.edge_d
*703 e2\.intermediate
*704 e2\.sync
*705 net1
*706 net10
*707 net100
*708 net101
*709 net102
*710 net103
*711 net104
*712 net105
*713 net106
*714 net107
*715 net108
*716 net109
*717 net11
*718 net110
*719 net111
*720 net112
*721 net113
*722 net114
*723 net115
*724 net116
*725 net117
*726 net118
*727 net119
*728 net12
*729 net120
*730 net121
*731 net122
*732 net123
*733 net124
*734 net125
*735 net126
*736 net127
*737 net128
*738 net129
*739 net13
*740 net130
*741 net131
*742 net132
*743 net133
*744 net134
*745 net135
*746 net136
*747 net137
*748 net14
*749 net15
*750 net16
*751 net17
*752 net18
*753 net19
*754 net2
*755 net20
*756 net21
*757 net22
*758 net23
*759 net24
*760 net25
*761 net26
*762 net27
*763 net28
*764 net29
*765 net3
*766 net30
*767 net31
*768 net32
*769 net33
*770 net34
*771 net35
*772 net36
*773 net37
*774 net38
*775 net39
*776 net4
*777 net40
*778 net41
*779 net42
*780 net43
*781 net44
*782 net45
*783 net46
*784 net47
*785 net48
*786 net49
*787 net5
*788 net50
*789 net51
*790 net52
*791 net53
*792 net54
*793 net55
*794 net56
*795 net57
*796 net58
*797 net59
*798 net6
*799 net60
*800 net61
*801 net62
*802 net63
*803 net64
*804 net65
*805 net66
*806 net67
*807 net68
*808 net69
*809 net7
*810 net70
*811 net71
*812 net72
*813 net73
*814 net74
*815 net75
*816 net76
*817 net77
*818 net78
*819 net79
*820 net8
*821 net80
*822 net81
*823 net82
*824 net83
*825 net84
*826 net85
*827 net86
*828 net87
*829 net88
*830 net89
*831 net9
*832 net90
*833 net91
*834 net92
*835 net93
*836 net94
*837 net95
*838 net96
*839 net97
*840 net98
*841 net99
*842 ANTENNA_1
*843 FILLER_0_0_109
*844 FILLER_0_0_119
*845 FILLER_0_0_131
*846 FILLER_0_0_137
*847 FILLER_0_0_141
*848 FILLER_0_0_149
*849 FILLER_0_0_156
*850 FILLER_0_0_169
*851 FILLER_0_0_181
*852 FILLER_0_0_193
*853 FILLER_0_0_203
*854 FILLER_0_0_21
*855 FILLER_0_0_215
*856 FILLER_0_0_223
*857 FILLER_0_0_225
*858 FILLER_0_0_233
*859 FILLER_0_0_245
*860 FILLER_0_0_251
*861 FILLER_0_0_253
*862 FILLER_0_0_265
*863 FILLER_0_0_27
*864 FILLER_0_0_275
*865 FILLER_0_0_279
*866 FILLER_0_0_281
*867 FILLER_0_0_293
*868 FILLER_0_0_35
*869 FILLER_0_0_47
*870 FILLER_0_0_55
*871 FILLER_0_0_57
*872 FILLER_0_0_65
*873 FILLER_0_0_72
*874 FILLER_0_0_85
*875 FILLER_0_0_9
*876 FILLER_0_0_97
*877 FILLER_0_10_109
*878 FILLER_0_10_121
*879 FILLER_0_10_133
*880 FILLER_0_10_149
*881 FILLER_0_10_161
*882 FILLER_0_10_165
*883 FILLER_0_10_190
*884 FILLER_0_10_197
*885 FILLER_0_10_205
*886 FILLER_0_10_250
*887 FILLER_0_10_26
*888 FILLER_0_10_263
*889 FILLER_0_10_274
*890 FILLER_0_10_29
*891 FILLER_0_10_291
*892 FILLER_0_10_3
*893 FILLER_0_10_303
*894 FILLER_0_10_45
*895 FILLER_0_10_70
*896 FILLER_0_10_82
*897 FILLER_0_10_85
*898 FILLER_0_10_97
*899 FILLER_0_11_111
*900 FILLER_0_11_113
*901 FILLER_0_11_125
*902 FILLER_0_11_129
*903 FILLER_0_11_157
*904 FILLER_0_11_165
*905 FILLER_0_11_183
*906 FILLER_0_11_191
*907 FILLER_0_11_213
*908 FILLER_0_11_218
*909 FILLER_0_11_225
*910 FILLER_0_11_233
*911 FILLER_0_11_241
*912 FILLER_0_11_251
*913 FILLER_0_11_263
*914 FILLER_0_11_291
*915 FILLER_0_11_3
*916 FILLER_0_11_303
*917 FILLER_0_11_38
*918 FILLER_0_11_64
*919 FILLER_0_11_75
*920 FILLER_0_11_87
*921 FILLER_0_11_99
*922 FILLER_0_12_120
*923 FILLER_0_12_128
*924 FILLER_0_12_132
*925 FILLER_0_12_139
*926 FILLER_0_12_141
*927 FILLER_0_12_145
*928 FILLER_0_12_154
*929 FILLER_0_12_166
*930 FILLER_0_12_178
*931 FILLER_0_12_182
*932 FILLER_0_12_190
*933 FILLER_0_12_205
*934 FILLER_0_12_217
*935 FILLER_0_12_223
*936 FILLER_0_12_239
*937 FILLER_0_12_251
*938 FILLER_0_12_253
*939 FILLER_0_12_29
*940 FILLER_0_12_299
*941 FILLER_0_12_3
*942 FILLER_0_12_33
*943 FILLER_0_12_42
*944 FILLER_0_12_7
*945 FILLER_0_12_76
*946 FILLER_0_13_111
*947 FILLER_0_13_113
*948 FILLER_0_13_155
*949 FILLER_0_13_167
*950 FILLER_0_13_176
*951 FILLER_0_13_195
*952 FILLER_0_13_207
*953 FILLER_0_13_219
*954 FILLER_0_13_223
*955 FILLER_0_13_225
*956 FILLER_0_13_237
*957 FILLER_0_13_249
*958 FILLER_0_13_261
*959 FILLER_0_13_278
*960 FILLER_0_13_29
*961 FILLER_0_13_296
*962 FILLER_0_13_3
*963 FILLER_0_13_304
*964 FILLER_0_13_50
*965 FILLER_0_13_67
*966 FILLER_0_13_79
*967 FILLER_0_14_113
*968 FILLER_0_14_138
*969 FILLER_0_14_144
*970 FILLER_0_14_15
*971 FILLER_0_14_152
*972 FILLER_0_14_163
*973 FILLER_0_14_167
*974 FILLER_0_14_197
*975 FILLER_0_14_215
*976 FILLER_0_14_227
*977 FILLER_0_14_233
*978 FILLER_0_14_242
*979 FILLER_0_14_250
*980 FILLER_0_14_253
*981 FILLER_0_14_265
*982 FILLER_0_14_27
*983 FILLER_0_14_273
*984 FILLER_0_14_285
*985 FILLER_0_14_29
*986 FILLER_0_14_297
*987 FILLER_0_14_3
*988 FILLER_0_14_40
*989 FILLER_0_14_52
*990 FILLER_0_14_64
*991 FILLER_0_14_76
*992 FILLER_0_14_85
*993 FILLER_0_15_105
*994 FILLER_0_15_111
*995 FILLER_0_15_113
*996 FILLER_0_15_125
*997 FILLER_0_15_133
*998 FILLER_0_15_149
*999 FILLER_0_15_15
*1000 FILLER_0_15_161
*1001 FILLER_0_15_169
*1002 FILLER_0_15_188
*1003 FILLER_0_15_222
*1004 FILLER_0_15_225
*1005 FILLER_0_15_259
*1006 FILLER_0_15_263
*1007 FILLER_0_15_27
*1008 FILLER_0_15_281
*1009 FILLER_0_15_293
*1010 FILLER_0_15_3
*1011 FILLER_0_15_36
*1012 FILLER_0_15_45
*1013 FILLER_0_15_63
*1014 FILLER_0_15_75
*1015 FILLER_0_15_87
*1016 FILLER_0_16_107
*1017 FILLER_0_16_119
*1018 FILLER_0_16_131
*1019 FILLER_0_16_139
*1020 FILLER_0_16_141
*1021 FILLER_0_16_153
*1022 FILLER_0_16_157
*1023 FILLER_0_16_185
*1024 FILLER_0_16_195
*1025 FILLER_0_16_197
*1026 FILLER_0_16_288
*1027 FILLER_0_16_296
*1028 FILLER_0_16_3
*1029 FILLER_0_16_44
*1030 FILLER_0_16_7
*1031 FILLER_0_16_74
*1032 FILLER_0_16_82
*1033 FILLER_0_16_85
*1034 FILLER_0_16_93
*1035 FILLER_0_17_109
*1036 FILLER_0_17_113
*1037 FILLER_0_17_144
*1038 FILLER_0_17_156
*1039 FILLER_0_17_160
*1040 FILLER_0_17_169
*1041 FILLER_0_17_180
*1042 FILLER_0_17_186
*1043 FILLER_0_17_218
*1044 FILLER_0_17_255
*1045 FILLER_0_17_263
*1046 FILLER_0_17_272
*1047 FILLER_0_17_281
*1048 FILLER_0_17_293
*1049 FILLER_0_17_52
*1050 FILLER_0_17_67
*1051 FILLER_0_17_78
*1052 FILLER_0_17_9
*1053 FILLER_0_18_119
*1054 FILLER_0_18_15
*1055 FILLER_0_18_156
*1056 FILLER_0_18_160
*1057 FILLER_0_18_174
*1058 FILLER_0_18_186
*1059 FILLER_0_18_194
*1060 FILLER_0_18_197
*1061 FILLER_0_18_206
*1062 FILLER_0_18_218
*1063 FILLER_0_18_230
*1064 FILLER_0_18_250
*1065 FILLER_0_18_253
*1066 FILLER_0_18_265
*1067 FILLER_0_18_277
*1068 FILLER_0_18_289
*1069 FILLER_0_18_29
*1070 FILLER_0_18_3
*1071 FILLER_0_18_301
*1072 FILLER_0_18_33
*1073 FILLER_0_18_41
*1074 FILLER_0_18_75
*1075 FILLER_0_18_83
*1076 FILLER_0_18_85
*1077 FILLER_0_19_108
*1078 FILLER_0_19_128
*1079 FILLER_0_19_132
*1080 FILLER_0_19_176
*1081 FILLER_0_19_207
*1082 FILLER_0_19_215
*1083 FILLER_0_19_225
*1084 FILLER_0_19_243
*1085 FILLER_0_19_255
*1086 FILLER_0_19_267
*1087 FILLER_0_19_279
*1088 FILLER_0_19_281
*1089 FILLER_0_19_293
*1090 FILLER_0_19_3
*1091 FILLER_0_19_35
*1092 FILLER_0_19_57
*1093 FILLER_0_19_76
*1094 FILLER_0_1_105
*1095 FILLER_0_1_111
*1096 FILLER_0_1_113
*1097 FILLER_0_1_125
*1098 FILLER_0_1_147
*1099 FILLER_0_1_15
*1100 FILLER_0_1_159
*1101 FILLER_0_1_167
*1102 FILLER_0_1_169
*1103 FILLER_0_1_187
*1104 FILLER_0_1_199
*1105 FILLER_0_1_211
*1106 FILLER_0_1_223
*1107 FILLER_0_1_225
*1108 FILLER_0_1_237
*1109 FILLER_0_1_249
*1110 FILLER_0_1_261
*1111 FILLER_0_1_27
*1112 FILLER_0_1_273
*1113 FILLER_0_1_279
*1114 FILLER_0_1_281
*1115 FILLER_0_1_293
*1116 FILLER_0_1_3
*1117 FILLER_0_1_39
*1118 FILLER_0_1_51
*1119 FILLER_0_1_55
*1120 FILLER_0_1_57
*1121 FILLER_0_1_69
*1122 FILLER_0_1_81
*1123 FILLER_0_1_93
*1124 FILLER_0_20_100
*1125 FILLER_0_20_109
*1126 FILLER_0_20_11
*1127 FILLER_0_20_120
*1128 FILLER_0_20_132
*1129 FILLER_0_20_141
*1130 FILLER_0_20_15
*1131 FILLER_0_20_153
*1132 FILLER_0_20_177
*1133 FILLER_0_20_189
*1134 FILLER_0_20_195
*1135 FILLER_0_20_203
*1136 FILLER_0_20_215
*1137 FILLER_0_20_223
*1138 FILLER_0_20_227
*1139 FILLER_0_20_247
*1140 FILLER_0_20_251
*1141 FILLER_0_20_253
*1142 FILLER_0_20_269
*1143 FILLER_0_20_281
*1144 FILLER_0_20_29
*1145 FILLER_0_20_293
*1146 FILLER_0_20_3
*1147 FILLER_0_20_41
*1148 FILLER_0_20_53
*1149 FILLER_0_20_66
*1150 FILLER_0_20_77
*1151 FILLER_0_20_82
*1152 FILLER_0_21_102
*1153 FILLER_0_21_113
*1154 FILLER_0_21_125
*1155 FILLER_0_21_137
*1156 FILLER_0_21_146
*1157 FILLER_0_21_157
*1158 FILLER_0_21_165
*1159 FILLER_0_21_169
*1160 FILLER_0_21_181
*1161 FILLER_0_21_187
*1162 FILLER_0_21_212
*1163 FILLER_0_21_216
*1164 FILLER_0_21_223
*1165 FILLER_0_21_225
*1166 FILLER_0_21_233
*1167 FILLER_0_21_253
*1168 FILLER_0_21_274
*1169 FILLER_0_21_28
*1170 FILLER_0_21_281
*1171 FILLER_0_21_289
*1172 FILLER_0_21_3
*1173 FILLER_0_21_304
*1174 FILLER_0_21_40
*1175 FILLER_0_21_52
*1176 FILLER_0_21_64
*1177 FILLER_0_21_76
*1178 FILLER_0_21_88
*1179 FILLER_0_21_94
*1180 FILLER_0_22_109
*1181 FILLER_0_22_113
*1182 FILLER_0_22_134
*1183 FILLER_0_22_15
*1184 FILLER_0_22_150
*1185 FILLER_0_22_171
*1186 FILLER_0_22_183
*1187 FILLER_0_22_194
*1188 FILLER_0_22_216
*1189 FILLER_0_22_240
*1190 FILLER_0_22_249
*1191 FILLER_0_22_253
*1192 FILLER_0_22_27
*1193 FILLER_0_22_277
*1194 FILLER_0_22_29
*1195 FILLER_0_22_3
*1196 FILLER_0_22_302
*1197 FILLER_0_22_41
*1198 FILLER_0_22_53
*1199 FILLER_0_22_72
*1200 FILLER_0_22_83
*1201 FILLER_0_22_85
*1202 FILLER_0_22_97
*1203 FILLER_0_23_108
*1204 FILLER_0_23_140
*1205 FILLER_0_23_144
*1206 FILLER_0_23_15
*1207 FILLER_0_23_203
*1208 FILLER_0_23_225
*1209 FILLER_0_23_234
*1210 FILLER_0_23_250
*1211 FILLER_0_23_262
*1212 FILLER_0_23_27
*1213 FILLER_0_23_277
*1214 FILLER_0_23_293
*1215 FILLER_0_23_3
*1216 FILLER_0_23_31
*1217 FILLER_0_23_52
*1218 FILLER_0_23_57
*1219 FILLER_0_23_87
*1220 FILLER_0_24_108
*1221 FILLER_0_24_116
*1222 FILLER_0_24_141
*1223 FILLER_0_24_164
*1224 FILLER_0_24_194
*1225 FILLER_0_24_208
*1226 FILLER_0_24_220
*1227 FILLER_0_24_232
*1228 FILLER_0_24_238
*1229 FILLER_0_24_251
*1230 FILLER_0_24_253
*1231 FILLER_0_24_265
*1232 FILLER_0_24_287
*1233 FILLER_0_24_29
*1234 FILLER_0_24_299
*1235 FILLER_0_24_3
*1236 FILLER_0_24_33
*1237 FILLER_0_24_54
*1238 FILLER_0_24_7
*1239 FILLER_0_24_80
*1240 FILLER_0_24_85
*1241 FILLER_0_25_110
*1242 FILLER_0_25_121
*1243 FILLER_0_25_136
*1244 FILLER_0_25_14
*1245 FILLER_0_25_148
*1246 FILLER_0_25_166
*1247 FILLER_0_25_169
*1248 FILLER_0_25_181
*1249 FILLER_0_25_193
*1250 FILLER_0_25_205
*1251 FILLER_0_25_217
*1252 FILLER_0_25_223
*1253 FILLER_0_25_225
*1254 FILLER_0_25_237
*1255 FILLER_0_25_246
*1256 FILLER_0_25_258
*1257 FILLER_0_25_266
*1258 FILLER_0_25_270
*1259 FILLER_0_25_278
*1260 FILLER_0_25_281
*1261 FILLER_0_25_293
*1262 FILLER_0_25_43
*1263 FILLER_0_25_47
*1264 FILLER_0_25_6
*1265 FILLER_0_25_72
*1266 FILLER_0_25_90
*1267 FILLER_0_25_94
*1268 FILLER_0_26_102
*1269 FILLER_0_26_111
*1270 FILLER_0_26_123
*1271 FILLER_0_26_135
*1272 FILLER_0_26_139
*1273 FILLER_0_26_148
*1274 FILLER_0_26_157
*1275 FILLER_0_26_169
*1276 FILLER_0_26_181
*1277 FILLER_0_26_193
*1278 FILLER_0_26_197
*1279 FILLER_0_26_209
*1280 FILLER_0_26_221
*1281 FILLER_0_26_23
*1282 FILLER_0_26_233
*1283 FILLER_0_26_248
*1284 FILLER_0_26_262
*1285 FILLER_0_26_268
*1286 FILLER_0_26_27
*1287 FILLER_0_26_283
*1288 FILLER_0_26_297
*1289 FILLER_0_26_37
*1290 FILLER_0_26_41
*1291 FILLER_0_26_57
*1292 FILLER_0_26_69
*1293 FILLER_0_26_81
*1294 FILLER_0_26_85
*1295 FILLER_0_26_93
*1296 FILLER_0_27_113
*1297 FILLER_0_27_119
*1298 FILLER_0_27_148
*1299 FILLER_0_27_15
*1300 FILLER_0_27_158
*1301 FILLER_0_27_166
*1302 FILLER_0_27_177
*1303 FILLER_0_27_198
*1304 FILLER_0_27_210
*1305 FILLER_0_27_23
*1306 FILLER_0_27_234
*1307 FILLER_0_27_3
*1308 FILLER_0_27_300
*1309 FILLER_0_27_304
*1310 FILLER_0_27_52
*1311 FILLER_0_27_57
*1312 FILLER_0_27_69
*1313 FILLER_0_27_81
*1314 FILLER_0_27_89
*1315 FILLER_0_28_141
*1316 FILLER_0_28_15
*1317 FILLER_0_28_170
*1318 FILLER_0_28_204
*1319 FILLER_0_28_227
*1320 FILLER_0_28_239
*1321 FILLER_0_28_249
*1322 FILLER_0_28_27
*1323 FILLER_0_28_284
*1324 FILLER_0_28_29
*1325 FILLER_0_28_297
*1326 FILLER_0_28_3
*1327 FILLER_0_28_43
*1328 FILLER_0_28_72
*1329 FILLER_0_28_85
*1330 FILLER_0_28_91
*1331 FILLER_0_29_121
*1332 FILLER_0_29_141
*1333 FILLER_0_29_147
*1334 FILLER_0_29_169
*1335 FILLER_0_29_193
*1336 FILLER_0_29_218
*1337 FILLER_0_29_225
*1338 FILLER_0_29_268
*1339 FILLER_0_29_3
*1340 FILLER_0_29_304
*1341 FILLER_0_29_48
*1342 FILLER_0_29_57
*1343 FILLER_0_29_7
*1344 FILLER_0_29_78
*1345 FILLER_0_2_109
*1346 FILLER_0_2_121
*1347 FILLER_0_2_135
*1348 FILLER_0_2_15
*1349 FILLER_0_2_158
*1350 FILLER_0_2_174
*1351 FILLER_0_2_197
*1352 FILLER_0_2_209
*1353 FILLER_0_2_221
*1354 FILLER_0_2_233
*1355 FILLER_0_2_245
*1356 FILLER_0_2_251
*1357 FILLER_0_2_253
*1358 FILLER_0_2_261
*1359 FILLER_0_2_265
*1360 FILLER_0_2_27
*1361 FILLER_0_2_277
*1362 FILLER_0_2_289
*1363 FILLER_0_2_29
*1364 FILLER_0_2_301
*1365 FILLER_0_2_41
*1366 FILLER_0_2_53
*1367 FILLER_0_2_65
*1368 FILLER_0_2_77
*1369 FILLER_0_2_83
*1370 FILLER_0_2_85
*1371 FILLER_0_2_9
*1372 FILLER_0_2_97
*1373 FILLER_0_30_118
*1374 FILLER_0_30_128
*1375 FILLER_0_30_141
*1376 FILLER_0_30_15
*1377 FILLER_0_30_171
*1378 FILLER_0_30_184
*1379 FILLER_0_30_209
*1380 FILLER_0_30_221
*1381 FILLER_0_30_233
*1382 FILLER_0_30_245
*1383 FILLER_0_30_251
*1384 FILLER_0_30_253
*1385 FILLER_0_30_265
*1386 FILLER_0_30_27
*1387 FILLER_0_30_277
*1388 FILLER_0_30_289
*1389 FILLER_0_30_29
*1390 FILLER_0_30_3
*1391 FILLER_0_30_40
*1392 FILLER_0_30_52
*1393 FILLER_0_30_62
*1394 FILLER_0_30_93
*1395 FILLER_0_30_97
*1396 FILLER_0_31_106
*1397 FILLER_0_31_121
*1398 FILLER_0_31_134
*1399 FILLER_0_31_146
*1400 FILLER_0_31_157
*1401 FILLER_0_31_167
*1402 FILLER_0_31_176
*1403 FILLER_0_31_188
*1404 FILLER_0_31_21
*1405 FILLER_0_31_212
*1406 FILLER_0_31_225
*1407 FILLER_0_31_237
*1408 FILLER_0_31_249
*1409 FILLER_0_31_261
*1410 FILLER_0_31_273
*1411 FILLER_0_31_279
*1412 FILLER_0_31_281
*1413 FILLER_0_31_285
*1414 FILLER_0_31_291
*1415 FILLER_0_31_303
*1416 FILLER_0_31_33
*1417 FILLER_0_31_45
*1418 FILLER_0_31_53
*1419 FILLER_0_31_57
*1420 FILLER_0_31_65
*1421 FILLER_0_31_9
*1422 FILLER_0_31_94
*1423 FILLER_0_32_110
*1424 FILLER_0_32_118
*1425 FILLER_0_32_126
*1426 FILLER_0_32_136
*1427 FILLER_0_32_141
*1428 FILLER_0_32_153
*1429 FILLER_0_32_164
*1430 FILLER_0_32_176
*1431 FILLER_0_32_188
*1432 FILLER_0_32_197
*1433 FILLER_0_32_209
*1434 FILLER_0_32_221
*1435 FILLER_0_32_233
*1436 FILLER_0_32_245
*1437 FILLER_0_32_251
*1438 FILLER_0_32_253
*1439 FILLER_0_32_265
*1440 FILLER_0_32_277
*1441 FILLER_0_32_281
*1442 FILLER_0_32_297
*1443 FILLER_0_32_3
*1444 FILLER_0_32_37
*1445 FILLER_0_32_49
*1446 FILLER_0_32_7
*1447 FILLER_0_32_72
*1448 FILLER_0_32_93
*1449 FILLER_0_33_107
*1450 FILLER_0_33_111
*1451 FILLER_0_33_113
*1452 FILLER_0_33_15
*1453 FILLER_0_33_151
*1454 FILLER_0_33_163
*1455 FILLER_0_33_167
*1456 FILLER_0_33_189
*1457 FILLER_0_33_203
*1458 FILLER_0_33_215
*1459 FILLER_0_33_23
*1460 FILLER_0_33_230
*1461 FILLER_0_33_234
*1462 FILLER_0_33_240
*1463 FILLER_0_33_253
*1464 FILLER_0_33_265
*1465 FILLER_0_33_281
*1466 FILLER_0_33_3
*1467 FILLER_0_33_303
*1468 FILLER_0_33_40
*1469 FILLER_0_33_52
*1470 FILLER_0_33_85
*1471 FILLER_0_34_15
*1472 FILLER_0_34_157
*1473 FILLER_0_34_224
*1474 FILLER_0_34_249
*1475 FILLER_0_34_253
*1476 FILLER_0_34_27
*1477 FILLER_0_34_273
*1478 FILLER_0_34_3
*1479 FILLER_0_34_300
*1480 FILLER_0_34_304
*1481 FILLER_0_34_49
*1482 FILLER_0_34_61
*1483 FILLER_0_34_75
*1484 FILLER_0_34_83
*1485 FILLER_0_34_85
*1486 FILLER_0_34_99
*1487 FILLER_0_35_106
*1488 FILLER_0_35_113
*1489 FILLER_0_35_127
*1490 FILLER_0_35_148
*1491 FILLER_0_35_15
*1492 FILLER_0_35_160
*1493 FILLER_0_35_201
*1494 FILLER_0_35_21
*1495 FILLER_0_35_266
*1496 FILLER_0_35_278
*1497 FILLER_0_35_284
*1498 FILLER_0_35_290
*1499 FILLER_0_35_3
*1500 FILLER_0_35_302
*1501 FILLER_0_35_84
*1502 FILLER_0_36_109
*1503 FILLER_0_36_121
*1504 FILLER_0_36_133
*1505 FILLER_0_36_139
*1506 FILLER_0_36_141
*1507 FILLER_0_36_15
*1508 FILLER_0_36_165
*1509 FILLER_0_36_173
*1510 FILLER_0_36_183
*1511 FILLER_0_36_195
*1512 FILLER_0_36_197
*1513 FILLER_0_36_205
*1514 FILLER_0_36_215
*1515 FILLER_0_36_27
*1516 FILLER_0_36_271
*1517 FILLER_0_36_283
*1518 FILLER_0_36_29
*1519 FILLER_0_36_295
*1520 FILLER_0_36_3
*1521 FILLER_0_36_303
*1522 FILLER_0_36_40
*1523 FILLER_0_36_44
*1524 FILLER_0_36_81
*1525 FILLER_0_36_85
*1526 FILLER_0_37_109
*1527 FILLER_0_37_128
*1528 FILLER_0_37_140
*1529 FILLER_0_37_148
*1530 FILLER_0_37_15
*1531 FILLER_0_37_166
*1532 FILLER_0_37_177
*1533 FILLER_0_37_189
*1534 FILLER_0_37_201
*1535 FILLER_0_37_209
*1536 FILLER_0_37_216
*1537 FILLER_0_37_228
*1538 FILLER_0_37_234
*1539 FILLER_0_37_238
*1540 FILLER_0_37_242
*1541 FILLER_0_37_265
*1542 FILLER_0_37_27
*1543 FILLER_0_37_277
*1544 FILLER_0_37_281
*1545 FILLER_0_37_293
*1546 FILLER_0_37_3
*1547 FILLER_0_37_35
*1548 FILLER_0_37_44
*1549 FILLER_0_37_57
*1550 FILLER_0_37_68
*1551 FILLER_0_37_78
*1552 FILLER_0_38_117
*1553 FILLER_0_38_129
*1554 FILLER_0_38_137
*1555 FILLER_0_38_15
*1556 FILLER_0_38_163
*1557 FILLER_0_38_175
*1558 FILLER_0_38_182
*1559 FILLER_0_38_194
*1560 FILLER_0_38_197
*1561 FILLER_0_38_209
*1562 FILLER_0_38_220
*1563 FILLER_0_38_232
*1564 FILLER_0_38_244
*1565 FILLER_0_38_263
*1566 FILLER_0_38_27
*1567 FILLER_0_38_275
*1568 FILLER_0_38_287
*1569 FILLER_0_38_29
*1570 FILLER_0_38_299
*1571 FILLER_0_38_3
*1572 FILLER_0_38_35
*1573 FILLER_0_38_44
*1574 FILLER_0_38_52
*1575 FILLER_0_38_64
*1576 FILLER_0_38_76
*1577 FILLER_0_38_85
*1578 FILLER_0_39_108
*1579 FILLER_0_39_121
*1580 FILLER_0_39_138
*1581 FILLER_0_39_164
*1582 FILLER_0_39_169
*1583 FILLER_0_39_186
*1584 FILLER_0_39_198
*1585 FILLER_0_39_21
*1586 FILLER_0_39_210
*1587 FILLER_0_39_222
*1588 FILLER_0_39_225
*1589 FILLER_0_39_237
*1590 FILLER_0_39_249
*1591 FILLER_0_39_261
*1592 FILLER_0_39_273
*1593 FILLER_0_39_279
*1594 FILLER_0_39_281
*1595 FILLER_0_39_293
*1596 FILLER_0_39_33
*1597 FILLER_0_39_45
*1598 FILLER_0_39_53
*1599 FILLER_0_39_57
*1600 FILLER_0_39_69
*1601 FILLER_0_39_81
*1602 FILLER_0_39_87
*1603 FILLER_0_39_9
*1604 FILLER_0_3_105
*1605 FILLER_0_3_11
*1606 FILLER_0_3_111
*1607 FILLER_0_3_113
*1608 FILLER_0_3_125
*1609 FILLER_0_3_147
*1610 FILLER_0_3_15
*1611 FILLER_0_3_155
*1612 FILLER_0_3_166
*1613 FILLER_0_3_184
*1614 FILLER_0_3_188
*1615 FILLER_0_3_209
*1616 FILLER_0_3_221
*1617 FILLER_0_3_225
*1618 FILLER_0_3_237
*1619 FILLER_0_3_254
*1620 FILLER_0_3_260
*1621 FILLER_0_3_27
*1622 FILLER_0_3_272
*1623 FILLER_0_3_281
*1624 FILLER_0_3_293
*1625 FILLER_0_3_3
*1626 FILLER_0_3_39
*1627 FILLER_0_3_51
*1628 FILLER_0_3_55
*1629 FILLER_0_3_57
*1630 FILLER_0_3_69
*1631 FILLER_0_3_81
*1632 FILLER_0_3_93
*1633 FILLER_0_40_104
*1634 FILLER_0_40_112
*1635 FILLER_0_40_137
*1636 FILLER_0_40_141
*1637 FILLER_0_40_145
*1638 FILLER_0_40_15
*1639 FILLER_0_40_157
*1640 FILLER_0_40_189
*1641 FILLER_0_40_195
*1642 FILLER_0_40_207
*1643 FILLER_0_40_219
*1644 FILLER_0_40_231
*1645 FILLER_0_40_243
*1646 FILLER_0_40_251
*1647 FILLER_0_40_253
*1648 FILLER_0_40_265
*1649 FILLER_0_40_27
*1650 FILLER_0_40_277
*1651 FILLER_0_40_289
*1652 FILLER_0_40_29
*1653 FILLER_0_40_3
*1654 FILLER_0_40_301
*1655 FILLER_0_40_35
*1656 FILLER_0_40_43
*1657 FILLER_0_40_68
*1658 FILLER_0_40_80
*1659 FILLER_0_40_85
*1660 FILLER_0_40_93
*1661 FILLER_0_41_100
*1662 FILLER_0_41_136
*1663 FILLER_0_41_148
*1664 FILLER_0_41_15
*1665 FILLER_0_41_166
*1666 FILLER_0_41_169
*1667 FILLER_0_41_174
*1668 FILLER_0_41_21
*1669 FILLER_0_41_220