*SPEF "ieee 1481-1999"
*DESIGN "calculator"
*DATE "11:11:11 Fri 11 11, 1111"
*VENDOR "OpenRCX"
*PROGRAM "Parallel Extraction"
*VERSION "1.0"
*DESIGN_FLOW "NAME_SCOPE LOCAL" "PIN_CAP NONE"
*DIVIDER /
*DELIMITER :
*BUS_DELIMITER []
*T_UNIT 1 NS
*C_UNIT 1 PF
*R_UNIT 1 OHM
*L_UNIT 1 HENRY

*NAME_MAP
*3 blue
*4 clk
*5 nrst
*6 pb[0]
*7 pb[1]
*8 pb[2]
*9 pb[3]
*10 pb[4]
*11 pb[5]
*12 pb[6]
*13 pb[7]
*14 pb[8]
*15 pb[9]
*16 red
*17 ss[0]
*18 ss[10]
*19 ss[11]
*20 ss[12]
*21 ss[13]
*22 ss[1]
*23 ss[2]
*24 ss[3]
*25 ss[4]
*26 ss[5]
*27 ss[6]
*28 ss[7]
*29 ss[8]
*30 ss[9]
*31 _0000_
*32 _0001_
*33 _0002_
*34 _0003_
*35 _0004_
*36 _0005_
*37 _0006_
*38 _0007_
*39 _0008_
*40 _0009_
*41 _0010_
*42 _0011_
*43 _0012_
*44 _0013_
*45 _0014_
*46 _0015_
*47 _0016_
*48 _0017_
*49 _0018_
*50 _0019_
*51 _0020_
*52 _0021_
*53 _0022_
*54 _0023_
*55 _0024_
*56 _0025_
*57 _0026_
*58 _0027_
*59 _0028_
*60 _0029_
*61 _0030_
*62 _0031_
*63 _0032_
*64 _0033_
*65 _0034_
*66 _0035_
*67 _0036_
*68 _0037_
*69 _0038_
*70 _0039_
*71 _0040_
*72 _0041_
*73 _0042_
*74 _0043_
*75 _0044_
*76 _0045_
*77 _0046_
*78 _0047_
*79 _0048_
*80 _0049_
*81 _0050_
*82 _0051_
*83 _0052_
*84 _0053_
*85 _0054_
*86 _0055_
*87 _0056_
*88 _0057_
*89 _0058_
*90 _0059_
*91 _0060_
*92 _0061_
*93 _0062_
*94 _0063_
*95 _0064_
*96 _0065_
*97 _0066_
*98 _0067_
*99 _0068_
*100 _0069_
*101 _0070_
*102 _0071_
*103 _0072_
*104 _0073_
*105 _0074_
*106 _0075_
*107 _0076_
*108 _0077_
*109 _0078_
*110 _0079_
*111 _0080_
*112 _0081_
*113 _0082_
*114 _0083_
*115 _0084_
*116 _0085_
*117 _0086_
*118 _0087_
*119 _0088_
*120 _0089_
*121 _0090_
*122 _0091_
*123 _0092_
*124 _0093_
*125 _0094_
*126 _0095_
*127 _0096_
*128 _0097_
*129 _0098_
*130 _0099_
*131 _0100_
*132 _0101_
*133 _0102_
*134 _0103_
*135 _0104_
*136 _0105_
*137 _0106_
*138 _0107_
*139 _0108_
*140 _0109_
*141 _0110_
*142 _0111_
*143 _0112_
*144 _0113_
*145 _0114_
*146 _0115_
*147 _0116_
*148 _0117_
*149 _0118_
*150 _0119_
*151 _0120_
*152 _0121_
*153 _0122_
*154 _0123_
*155 _0124_
*156 _0125_
*157 _0126_
*158 _0127_
*159 _0128_
*160 _0129_
*161 _0130_
*162 _0131_
*163 _0132_
*164 _0133_
*165 _0134_
*166 _0135_
*167 _0136_
*168 _0137_
*169 _0138_
*170 _0139_
*171 _0140_
*172 _0141_
*173 _0142_
*174 _0143_
*175 _0144_
*176 _0145_
*177 _0146_
*178 _0147_
*179 _0148_
*180 _0149_
*181 _0150_
*182 _0151_
*183 _0152_
*184 _0153_
*185 _0154_
*186 _0155_
*187 _0156_
*188 _0157_
*189 _0158_
*190 _0159_
*191 _0160_
*192 _0161_
*193 _0162_
*194 _0163_
*195 _0164_
*196 _0165_
*197 _0166_
*198 _0167_
*199 _0168_
*200 _0169_
*201 _0170_
*202 _0171_
*203 _0172_
*204 _0173_
*205 _0174_
*206 _0175_
*207 _0176_
*208 _0177_
*209 _0178_
*210 _0179_
*211 _0180_
*212 _0181_
*213 _0182_
*214 _0183_
*215 _0184_
*216 _0185_
*217 _0186_
*218 _0187_
*219 _0188_
*220 _0189_
*221 _0190_
*222 _0191_
*223 _0192_
*224 _0193_
*225 _0194_
*226 _0195_
*227 _0196_
*228 _0197_
*229 _0198_
*230 _0199_
*231 _0200_
*232 _0201_
*233 _0202_
*234 _0203_
*235 _0204_
*236 _0205_
*237 _0206_
*238 _0207_
*239 _0208_
*240 _0209_
*241 _0210_
*242 _0211_
*243 _0212_
*244 _0213_
*245 _0214_
*246 _0215_
*247 _0216_
*248 _0217_
*249 _0218_
*250 _0219_
*251 _0220_
*252 _0221_
*253 _0222_
*254 _0223_
*255 _0224_
*256 _0225_
*257 _0226_
*258 _0227_
*259 _0228_
*260 _0229_
*261 _0230_
*262 _0231_
*263 _0232_
*264 _0233_
*265 _0234_
*266 _0235_
*267 _0236_
*268 _0237_
*269 _0238_
*270 _0239_
*271 _0240_
*272 _0241_
*273 _0242_
*274 _0243_
*275 _0244_
*276 _0245_
*277 _0246_
*278 _0247_
*279 _0248_
*280 _0249_
*281 _0250_
*282 _0251_
*283 _0252_
*284 _0253_
*285 _0254_
*286 _0255_
*287 _0256_
*288 _0257_
*289 _0258_
*290 _0259_
*291 _0260_
*292 _0261_
*293 _0262_
*294 _0263_
*295 _0264_
*296 _0265_
*297 _0266_
*298 _0267_
*299 _0268_
*300 _0269_
*301 _0270_
*302 _0271_
*303 _0272_
*304 _0273_
*305 _0274_
*306 _0275_
*307 _0276_
*308 _0277_
*309 _0278_
*310 _0279_
*311 _0280_
*312 _0281_
*313 _0282_
*314 _0283_
*315 _0284_
*316 _0285_
*317 _0286_
*318 _0287_
*319 _0288_
*320 _0289_
*321 _0290_
*322 _0291_
*323 _0292_
*324 _0293_
*325 _0294_
*326 _0295_
*327 _0296_
*328 _0297_
*329 _0298_
*330 _0299_
*331 _0300_
*332 _0301_
*333 _0302_
*334 _0303_
*335 _0304_
*336 _0305_
*337 _0306_
*338 _0307_
*339 _0308_
*340 _0309_
*341 _0310_
*342 _0311_
*343 _0312_
*344 _0313_
*345 _0314_
*346 _0315_
*347 _0316_
*348 _0317_
*349 _0318_
*350 _0319_
*351 _0320_
*352 _0321_
*353 _0322_
*354 _0323_
*355 _0324_
*356 _0325_
*357 _0326_
*358 _0327_
*359 _0328_
*360 _0329_
*361 _0330_
*362 _0331_
*363 _0332_
*364 _0333_
*365 _0334_
*366 _0335_
*367 _0336_
*368 _0337_
*369 _0338_
*370 _0339_
*371 _0340_
*372 _0341_
*373 _0342_
*374 _0343_
*375 _0344_
*376 _0345_
*377 _0346_
*378 _0347_
*379 _0348_
*380 _0349_
*381 _0350_
*382 _0351_
*383 _0352_
*384 _0353_
*385 _0354_
*386 _0355_
*387 _0356_
*388 _0357_
*389 _0358_
*390 _0359_
*391 _0360_
*392 _0361_
*393 _0362_
*394 _0363_
*395 _0364_
*396 _0365_
*397 _0366_
*398 _0367_
*399 _0368_
*400 _0369_
*401 _0370_
*402 _0371_
*403 _0372_
*404 _0373_
*405 _0374_
*406 _0375_
*407 _0376_
*408 _0377_
*409 _0378_
*410 _0379_
*411 _0380_
*412 _0381_
*413 _0382_
*414 _0383_
*415 _0384_
*416 _0385_
*417 _0386_
*418 _0387_
*419 _0388_
*420 _0389_
*421 _0390_
*422 _0391_
*423 _0392_
*424 _0393_
*425 _0394_
*426 _0395_
*427 _0396_
*428 _0397_
*429 _0398_
*430 _0399_
*431 _0400_
*432 _0401_
*433 _0402_
*434 _0403_
*435 _0404_
*436 _0405_
*437 _0406_
*438 _0407_
*439 _0408_
*440 _0409_
*441 _0410_
*442 _0411_
*443 _0412_
*444 _0413_
*445 _0414_
*446 _0415_
*447 _0416_
*448 _0417_
*449 _0418_
*450 _0419_
*451 _0420_
*452 _0421_
*453 _0422_
*454 _0423_
*455 _0424_
*456 _0425_
*457 _0426_
*458 _0427_
*459 _0428_
*460 _0429_
*461 _0430_
*462 _0431_
*463 _0432_
*464 _0433_
*465 _0434_
*466 _0435_
*467 _0436_
*468 _0437_
*469 _0438_
*470 _0439_
*471 _0440_
*472 _0441_
*473 _0442_
*474 _0443_
*475 _0444_
*476 _0445_
*477 _0446_
*478 _0447_
*479 _0448_
*480 _0449_
*481 _0450_
*482 _0451_
*483 _0452_
*484 _0453_
*485 _0454_
*486 _0455_
*487 _0456_
*488 _0457_
*489 _0458_
*490 _0459_
*491 _0460_
*492 _0461_
*493 _0462_
*494 _0463_
*495 _0464_
*496 _0465_
*497 _0466_
*498 _0467_
*499 _0468_
*500 clknet_0_clk
*501 clknet_4_0_0_clk
*502 clknet_4_10_0_clk
*503 clknet_4_11_0_clk
*504 clknet_4_12_0_clk
*505 clknet_4_13_0_clk
*506 clknet_4_14_0_clk
*507 clknet_4_15_0_clk
*508 clknet_4_1_0_clk
*509 clknet_4_2_0_clk
*510 clknet_4_3_0_clk
*511 clknet_4_4_0_clk
*512 clknet_4_5_0_clk
*513 clknet_4_6_0_clk
*514 clknet_4_7_0_clk
*515 clknet_4_8_0_clk
*516 clknet_4_9_0_clk
*517 net1
*518 net10
*519 net100
*520 net101
*521 net102
*522 net103
*523 net104
*524 net105
*525 net106
*526 net107
*527 net108
*528 net109
*529 net11
*530 net110
*531 net111
*532 net112
*533 net113
*534 net114
*535 net115
*536 net116
*537 net117
*538 net118
*539 net119
*540 net12
*541 net120
*542 net121
*543 net122
*544 net123
*545 net124
*546 net125
*547 net126
*548 net127
*549 net128
*550 net129
*551 net13
*552 net130
*553 net131
*554 net132
*555 net133
*556 net134
*557 net135
*558 net136
*559 net14
*560 net15
*561 net16
*562 net17
*563 net18
*564 net19
*565 net2
*566 net20
*567 net21
*568 net22
*569 net23
*570 net24
*571 net25
*572 net26
*573 net27
*574 net28
*575 net29
*576 net3
*577 net30
*578 net31
*579 net32
*580 net33
*581 net34
*582 net35
*583 net36
*584 net37
*585 net38
*586 net39
*587 net4
*588 net40
*589 net41
*590 net42
*591 net43
*592 net44
*593 net45
*594 net46
*595 net47
*596 net48
*597 net49
*598 net5
*599 net50
*600 net51
*601 net52
*602 net53
*603 net54
*604 net55
*605 net56
*606 net57
*607 net58
*608 net59
*609 net6
*610 net60
*611 net61
*612 net62
*613 net63
*614 net64
*615 net65
*616 net66
*617 net67
*618 net68
*619 net69
*620 net7
*621 net70
*622 net71
*623 net72
*624 net73
*625 net74
*626 net75
*627 net76
*628 net77
*629 net78
*630 net79
*631 net8
*632 net80
*633 net81
*634 net82
*635 net83
*636 net84
*637 net85
*638 net86
*639 net87
*640 net88
*641 net89
*642 net9
*643 net90
*644 net91
*645 net92
*646 net93
*647 net94
*648 net95
*649 net96
*650 net97
*651 net98
*652 net99
*653 u1\.keycode\[0\]
*654 u1\.keycode\[1\]
*655 u1\.keycode\[2\]
*656 u1\.keycode\[3\]
*657 u1\.keycode\[4\]
*658 u1\.keycode\[5\]
*659 u1\.keycode\[6\]
*660 u1\.keycode\[7\]
*661 u1\.keycode\[8\]
*662 u1\.keypad_async\[0\]
*663 u1\.keypad_async\[1\]
*664 u1\.keypad_i\[0\]
*665 u1\.keypad_i\[1\]
*666 u1\.keypad_sync\[0\]
*667 u1\.keypad_sync\[1\]
*668 u1\.s_e_detect_w\.i_signal
*669 u1\.s_e_detect_w\.p_signal
*670 u1\.s_e_detect_w\.s_signal
*671 u1\.state\[0\]
*672 u1\.state\[10\]
*673 u1\.state\[11\]
*674 u1\.state\[12\]
*675 u1\.state\[13\]
*676 u1\.state\[14\]
*677 u1\.state\[1\]
*678 u1\.state\[2\]
*679 u1\.state\[3\]
*680 u1\.state\[4\]
*681 u1\.state\[6\]
*682 u1\.state\[7\]
*683 u1\.state\[8\]
*684 u1\.state\[9\]
*685 u1\.store_dig
*686 u3\.keypad_13\[0\]
*687 u3\.keypad_13\[1\]
*688 u3\.keypad_async\[0\]
*689 u3\.keypad_async\[1\]
*690 u3\.keypad_sync\[0\]
*691 u3\.keypad_sync\[1\]
*692 u3\.out\[1\]
*693 u4\.op1\[0\]
*694 u4\.op1\[1\]
*695 u4\.op1\[2\]
*696 u4\.op1\[3\]
*697 u4\.op1\[4\]
*698 u4\.op1\[5\]
*699 u4\.op1\[6\]
*700 u4\.op1\[7\]
*701 u4\.op1\[8\]
*702 u4\.result_ready
*703 u4\.ssdec\[0\]
*704 u4\.ssdec\[1\]
*705 u4\.ssdec\[2\]
*706 u4\.ssdec\[3\]
*707 u4\.ssdec\[4\]
*708 u4\.ssdec\[5\]
*709 u4\.ssdec\[6\]
*710 u4\.ssdec\[7\]
*711 u5\.reg1\[0\]
*712 u5\.reg1\[1\]
*713 u5\.reg1\[2\]
*714 u5\.reg1\[3\]
*715 u5\.reg1\[4\]
*716 u5\.reg1\[5\]
*717 u5\.reg1\[6\]
*718 u5\.reg1\[7\]
*719 u5\.reg1\[8\]
*720 u5\.reg2\[0\]
*721 u5\.reg2\[1\]
*722 u5\.reg2\[2\]
*723 u5\.reg2\[3\]
*724 u5\.reg2\[4\]
*725 u5\.reg2\[5\]
*726 u5\.reg2\[6\]
*727 u5\.reg2\[7\]
*728 u5\.reg2\[8\]
*729 u5\.reg3\[0\]
*730 u5\.reg3\[1\]
*731 u5\.reg3\[2\]
*732 u5\.reg3\[3\]
*733 u5\.reg3\[4\]
*734 u5\.reg3\[5\]
*735 u5\.reg3\[6\]
*736 u5\.reg3\[7\]
*737 u5\.reg3\[8\]
*738 u5\.reg4\[0\]
*739 u5\.reg4\[1\]
*740 u5\.reg4\[2\]
*741 u5\.reg4\[3\]
*742 u5\.reg4\[4\]
*743 u5\.reg4\[5\]
*744 u5\.reg4\[6\]
*745 u5\.reg4\[7\]
*746 u5\.reg4\[8\]
*747 u5\.reg_num\[0\]
*748 u5\.reg_num\[1\]
*749 u5\.reg_num\[2\]
*750 u5\.reg_val\[0\]
*751 u5\.reg_val\[1\]
*752 u5\.reg_val\[2\]
*753 u5\.reg_val\[3\]
*754 u5\.reg_val\[4\]
*755 u5\.reg_val\[5\]
*756 u5\.reg_val\[6\]
*757 u5\.reg_val\[7\]
*758 u5\.reg_val\[8\]
*759 u6\.next_reg_num\[0\]
*760 u6\.next_reg_num\[1\]
*761 u6\.next_reg_num\[2\]
*762 u6\.reg_async\[0\]
*763 u6\.reg_async\[1\]
*764 u6\.reg_async\[2\]
*765 u6\.reg_async\[3\]
*766 u6\.reg_i\[0\]
*767 u6\.reg_i\[1\]
*768 u6\.reg_i\[2\]
*769 u6\.reg_i\[3\]
*770 u6\.reg_sync\[0\]
*771 u6\.reg_sync\[1\]
*772 u6\.reg_sync\[2\]
*773 u6\.reg_sync\[3\]
*774 u7\.assign_op1
*775 u7\.assign_op2
*776 u7\.s_e_detect\.i_signal
*777 u7\.s_e_detect\.p_signal
*778 u7\.s_e_detect\.s_signal
*779 u7\.state\[0\]
*780 u7\.state\[4\]
*781 u7\.state\[5\]
*782 u7\.state\[6\]
*783 u8\.b_assign_op1
*784 u8\.b_assign_op2
*785 u8\.buff_opcode\[1\]
*786 u8\.new_op1\[0\]
*787 u8\.new_op1\[1\]
*788 u8\.new_op1\[2\]
*789 u8\.new_op1\[3\]
*790 u8\.new_op1\[8\]
*791 u8\.op1\[4\]
*792 u8\.op1\[5\]
*793 u8\.op1\[6\]
*794 u8\.op1\[7\]
*795 u8\.op2\[0\]
*796 u8\.op2\[1\]
*797 u8\.op2\[2\]
*798 u8\.op2\[3\]
*799 u8\.op2\[4\]
*800 u8\.op2\[5\]
*801 u8\.op2\[6\]
*802 u8\.op2\[7\]
*803 u8\.op2\[8\]
*804 FILLER_0_0_109
*805 FILLER_0_0_113
*806 FILLER_0_0_121
*807 FILLER_0_0_133
*808 FILLER_0_0_139
*809 FILLER_0_0_141
*810 FILLER_0_0_153
*811 FILLER_0_0_163
*812 FILLER_0_0_167
*813 FILLER_0_0_169
*814 FILLER_0_0_181
*815 FILLER_0_0_193
*816 FILLER_0_0_197
*817 FILLER_0_0_205
*818 FILLER_0_0_209
*819 FILLER_0_0_21
*820 FILLER_0_0_221
*821 FILLER_0_0_225
*822 FILLER_0_0_237
*823 FILLER_0_0_249
*824 FILLER_0_0_259
*825 FILLER_0_0_267
*826 FILLER_0_0_27
*827 FILLER_0_0_29
*828 FILLER_0_0_37
*829 FILLER_0_0_49
*830 FILLER_0_0_55
*831 FILLER_0_0_57
*832 FILLER_0_0_69
*833 FILLER_0_0_79
*834 FILLER_0_0_83
*835 FILLER_0_0_85
*836 FILLER_0_0_9
*837 FILLER_0_0_97
*838 FILLER_0_10_105
*839 FILLER_0_10_132
*840 FILLER_0_10_148
*841 FILLER_0_10_15
*842 FILLER_0_10_170
*843 FILLER_0_10_200
*844 FILLER_0_10_22
*845 FILLER_0_10_233
*846 FILLER_0_10_245
*847 FILLER_0_10_251
*848 FILLER_0_10_3
*849 FILLER_0_10_32
*850 FILLER_0_10_78
*851 FILLER_0_10_85
*852 FILLER_0_10_97
*853 FILLER_0_11_107
*854 FILLER_0_11_134
*855 FILLER_0_11_169
*856 FILLER_0_11_209
*857 FILLER_0_11_219
*858 FILLER_0_11_223
*859 FILLER_0_11_233
*860 FILLER_0_11_267
*861 FILLER_0_11_44
*862 FILLER_0_11_6
*863 FILLER_0_11_82
*864 FILLER_0_11_94
*865 FILLER_0_12_100
*866 FILLER_0_12_108
*867 FILLER_0_12_119
*868 FILLER_0_12_131
*869 FILLER_0_12_135
*870 FILLER_0_12_139
*871 FILLER_0_12_162
*872 FILLER_0_12_166
*873 FILLER_0_12_197
*874 FILLER_0_12_205
*875 FILLER_0_12_227
*876 FILLER_0_12_250
*877 FILLER_0_12_253
*878 FILLER_0_12_26
*879 FILLER_0_12_265
*880 FILLER_0_12_42
*881 FILLER_0_12_51
*882 FILLER_0_12_59
*883 FILLER_0_12_63
*884 FILLER_0_12_79
*885 FILLER_0_12_83
*886 FILLER_0_12_85
*887 FILLER_0_13_113
*888 FILLER_0_13_125
*889 FILLER_0_13_14
*890 FILLER_0_13_158
*891 FILLER_0_13_166
*892 FILLER_0_13_189
*893 FILLER_0_13_222
*894 FILLER_0_13_233
*895 FILLER_0_13_241
*896 FILLER_0_13_263
*897 FILLER_0_13_270
*898 FILLER_0_13_3
*899 FILLER_0_13_40
*900 FILLER_0_13_52
*901 FILLER_0_13_62
*902 FILLER_0_13_74
*903 FILLER_0_13_78
*904 FILLER_0_13_88
*905 FILLER_0_13_9
*906 FILLER_0_13_92
*907 FILLER_0_13_97
*908 FILLER_0_14_106
*909 FILLER_0_14_11
*910 FILLER_0_14_118
*911 FILLER_0_14_130
*912 FILLER_0_14_138
*913 FILLER_0_14_153
*914 FILLER_0_14_157
*915 FILLER_0_14_178
*916 FILLER_0_14_190
*917 FILLER_0_14_197
*918 FILLER_0_14_20
*919 FILLER_0_14_203
*920 FILLER_0_14_224
*921 FILLER_0_14_230
*922 FILLER_0_14_270
*923 FILLER_0_14_3
*924 FILLER_0_14_42
*925 FILLER_0_14_66
*926 FILLER_0_15_109
*927 FILLER_0_15_113
*928 FILLER_0_15_125
*929 FILLER_0_15_137
*930 FILLER_0_15_149
*931 FILLER_0_15_161
*932 FILLER_0_15_166
*933 FILLER_0_15_187
*934 FILLER_0_15_222
*935 FILLER_0_15_228
*936 FILLER_0_15_252
*937 FILLER_0_15_270
*938 FILLER_0_15_3
*939 FILLER_0_15_33
*940 FILLER_0_15_45
*941 FILLER_0_15_54
*942 FILLER_0_15_71
*943 FILLER_0_15_88
*944 FILLER_0_16_113
*945 FILLER_0_16_137
*946 FILLER_0_16_141
*947 FILLER_0_16_149
*948 FILLER_0_16_15
*949 FILLER_0_16_161
*950 FILLER_0_16_184
*951 FILLER_0_16_19
*952 FILLER_0_16_248
*953 FILLER_0_16_268
*954 FILLER_0_16_29
*955 FILLER_0_16_3
*956 FILLER_0_16_41
*957 FILLER_0_16_63
*958 FILLER_0_16_71
*959 FILLER_0_16_80
*960 FILLER_0_16_93
*961 FILLER_0_17_113
*962 FILLER_0_17_134
*963 FILLER_0_17_140
*964 FILLER_0_17_147
*965 FILLER_0_17_15
*966 FILLER_0_17_162
*967 FILLER_0_17_169
*968 FILLER_0_17_181
*969 FILLER_0_17_187
*970 FILLER_0_17_20
*971 FILLER_0_17_222
*972 FILLER_0_17_231
*973 FILLER_0_17_239
*974 FILLER_0_17_263
*975 FILLER_0_17_3
*976 FILLER_0_17_57
*977 FILLER_0_17_62
*978 FILLER_0_17_74
*979 FILLER_0_17_86
*980 FILLER_0_17_94
*981 FILLER_0_18_101
*982 FILLER_0_18_160
*983 FILLER_0_18_172
*984 FILLER_0_18_188
*985 FILLER_0_18_197
*986 FILLER_0_18_209
*987 FILLER_0_18_230
*988 FILLER_0_18_242
*989 FILLER_0_18_250
*990 FILLER_0_18_253
*991 FILLER_0_18_265
*992 FILLER_0_18_49
*993 FILLER_0_18_6
*994 FILLER_0_18_67
*995 FILLER_0_18_79
*996 FILLER_0_18_83
*997 FILLER_0_18_93
*998 FILLER_0_19_111
*999 FILLER_0_19_113
*1000 FILLER_0_19_129
*1001 FILLER_0_19_167
*1002 FILLER_0_19_169
*1003 FILLER_0_19_200
*1004 FILLER_0_19_208
*1005 FILLER_0_19_220
*1006 FILLER_0_19_225
*1007 FILLER_0_19_23
*1008 FILLER_0_19_231
*1009 FILLER_0_19_240
*1010 FILLER_0_19_263
*1011 FILLER_0_19_31
*1012 FILLER_0_19_51
*1013 FILLER_0_19_55
*1014 FILLER_0_19_66
*1015 FILLER_0_19_96
*1016 FILLER_0_1_111
*1017 FILLER_0_1_122
*1018 FILLER_0_1_127
*1019 FILLER_0_1_139
*1020 FILLER_0_1_143
*1021 FILLER_0_1_15
*1022 FILLER_0_1_164
*1023 FILLER_0_1_169
*1024 FILLER_0_1_173
*1025 FILLER_0_1_194
*1026 FILLER_0_1_206
*1027 FILLER_0_1_218
*1028 FILLER_0_1_225
*1029 FILLER_0_1_237
*1030 FILLER_0_1_249
*1031 FILLER_0_1_261
*1032 FILLER_0_1_269
*1033 FILLER_0_1_27
*1034 FILLER_0_1_3
*1035 FILLER_0_1_39
*1036 FILLER_0_1_51
*1037 FILLER_0_1_55
*1038 FILLER_0_1_57
*1039 FILLER_0_1_62
*1040 FILLER_0_1_74
*1041 FILLER_0_1_99
*1042 FILLER_0_20_103
*1043 FILLER_0_20_115
*1044 FILLER_0_20_126
*1045 FILLER_0_20_130
*1046 FILLER_0_20_134
*1047 FILLER_0_20_141
*1048 FILLER_0_20_158
*1049 FILLER_0_20_191
*1050 FILLER_0_20_195
*1051 FILLER_0_20_197
*1052 FILLER_0_20_209
*1053 FILLER_0_20_221
*1054 FILLER_0_20_23
*1055 FILLER_0_20_266
*1056 FILLER_0_20_27
*1057 FILLER_0_20_29
*1058 FILLER_0_20_50
*1059 FILLER_0_20_57
*1060 FILLER_0_20_91
*1061 FILLER_0_21_122
*1062 FILLER_0_21_134
*1063 FILLER_0_21_140
*1064 FILLER_0_21_15
*1065 FILLER_0_21_153
*1066 FILLER_0_21_161
*1067 FILLER_0_21_167
*1068 FILLER_0_21_178
*1069 FILLER_0_21_207
*1070 FILLER_0_21_215
*1071 FILLER_0_21_237
*1072 FILLER_0_21_243
*1073 FILLER_0_21_268
*1074 FILLER_0_21_3
*1075 FILLER_0_21_60
*1076 FILLER_0_21_69
*1077 FILLER_0_22_127
*1078 FILLER_0_22_139
*1079 FILLER_0_22_161
*1080 FILLER_0_22_173
*1081 FILLER_0_22_185
*1082 FILLER_0_22_194
*1083 FILLER_0_22_208
*1084 FILLER_0_22_245
*1085 FILLER_0_22_251
*1086 FILLER_0_22_253
*1087 FILLER_0_22_268
*1088 FILLER_0_22_27
*1089 FILLER_0_22_29
*1090 FILLER_0_22_3
*1091 FILLER_0_22_41
*1092 FILLER_0_22_53
*1093 FILLER_0_22_64
*1094 FILLER_0_22_72
*1095 FILLER_0_22_80
*1096 FILLER_0_22_85
*1097 FILLER_0_22_94
*1098 FILLER_0_23_133
*1099 FILLER_0_23_155
*1100 FILLER_0_23_167
*1101 FILLER_0_23_169
*1102 FILLER_0_23_206
*1103 FILLER_0_23_214
*1104 FILLER_0_23_223
*1105 FILLER_0_23_225
*1106 FILLER_0_23_237
*1107 FILLER_0_23_269
*1108 FILLER_0_23_3
*1109 FILLER_0_23_37
*1110 FILLER_0_23_49
*1111 FILLER_0_23_55
*1112 FILLER_0_23_61
*1113 FILLER_0_23_71
*1114 FILLER_0_23_85
*1115 FILLER_0_23_97
*1116 FILLER_0_24_109
*1117 FILLER_0_24_114
*1118 FILLER_0_24_127
*1119 FILLER_0_24_139
*1120 FILLER_0_24_144
*1121 FILLER_0_24_156
*1122 FILLER_0_24_168
*1123 FILLER_0_24_246
*1124 FILLER_0_24_261
*1125 FILLER_0_24_269
*1126 FILLER_0_24_3
*1127 FILLER_0_24_38
*1128 FILLER_0_24_85
*1129 FILLER_0_24_97
*1130 FILLER_0_25_107
*1131 FILLER_0_25_111
*1132 FILLER_0_25_113
*1133 FILLER_0_25_125
*1134 FILLER_0_25_137
*1135 FILLER_0_25_145
*1136 FILLER_0_25_166
*1137 FILLER_0_25_177
*1138 FILLER_0_25_211
*1139 FILLER_0_25_248
*1140 FILLER_0_25_25
*1141 FILLER_0_25_269
*1142 FILLER_0_25_3
*1143 FILLER_0_25_37
*1144 FILLER_0_25_50
*1145 FILLER_0_25_57
*1146 FILLER_0_25_78
*1147 FILLER_0_25_9
*1148 FILLER_0_26_133
*1149 FILLER_0_26_139
*1150 FILLER_0_26_14
*1151 FILLER_0_26_141
*1152 FILLER_0_26_195
*1153 FILLER_0_26_245
*1154 FILLER_0_26_251
*1155 FILLER_0_26_253
*1156 FILLER_0_26_26
*1157 FILLER_0_26_265
*1158 FILLER_0_26_29
*1159 FILLER_0_26_65
*1160 FILLER_0_26_77
*1161 FILLER_0_26_9
*1162 FILLER_0_27_133
*1163 FILLER_0_27_141
*1164 FILLER_0_27_152
*1165 FILLER_0_27_162
*1166 FILLER_0_27_177
*1167 FILLER_0_27_197
*1168 FILLER_0_27_208
*1169 FILLER_0_27_223
*1170 FILLER_0_27_225
*1171 FILLER_0_27_237
*1172 FILLER_0_27_249
*1173 FILLER_0_27_261
*1174 FILLER_0_27_267
*1175 FILLER_0_27_28
*1176 FILLER_0_27_3
*1177 FILLER_0_27_32
*1178 FILLER_0_27_66
*1179 FILLER_0_27_78
*1180 FILLER_0_27_87
*1181 FILLER_0_27_98
*1182 FILLER_0_28_107
*1183 FILLER_0_28_121
*1184 FILLER_0_28_133
*1185 FILLER_0_28_15
*1186 FILLER_0_28_170
*1187 FILLER_0_28_193
*1188 FILLER_0_28_197
*1189 FILLER_0_28_209
*1190 FILLER_0_28_221
*1191 FILLER_0_28_250
*1192 FILLER_0_28_253
*1193 FILLER_0_28_265
*1194 FILLER_0_28_27
*1195 FILLER_0_28_29
*1196 FILLER_0_28_3
*1197 FILLER_0_28_41
*1198 FILLER_0_28_63
*1199 FILLER_0_28_79
*1200 FILLER_0_28_83
*1201 FILLER_0_28_85
*1202 FILLER_0_28_97
*1203 FILLER_0_29_108
*1204 FILLER_0_29_11
*1205 FILLER_0_29_113
*1206 FILLER_0_29_129
*1207 FILLER_0_29_15
*1208 FILLER_0_29_153
*1209 FILLER_0_29_162
*1210 FILLER_0_29_180
*1211 FILLER_0_29_212
*1212 FILLER_0_29_225
*1213 FILLER_0_29_246
*1214 FILLER_0_29_258
*1215 FILLER_0_29_270
*1216 FILLER_0_29_3
*1217 FILLER_0_29_34
*1218 FILLER_0_29_49
*1219 FILLER_0_29_55
*1220 FILLER_0_29_64
*1221 FILLER_0_2_141
*1222 FILLER_0_2_15
*1223 FILLER_0_2_188
*1224 FILLER_0_2_197
*1225 FILLER_0_2_201
*1226 FILLER_0_2_222
*1227 FILLER_0_2_233
*1228 FILLER_0_2_245
*1229 FILLER_0_2_251
*1230 FILLER_0_2_253
*1231 FILLER_0_2_265
*1232 FILLER_0_2_27
*1233 FILLER_0_2_29
*1234 FILLER_0_2_3
*1235 FILLER_0_2_41
*1236 FILLER_0_2_81
*1237 FILLER_0_2_94
*1238 FILLER_0_2_98
*1239 FILLER_0_30_108
*1240 FILLER_0_30_116
*1241 FILLER_0_30_125
*1242 FILLER_0_30_137
*1243 FILLER_0_30_141
*1244 FILLER_0_30_147
*1245 FILLER_0_30_194
*1246 FILLER_0_30_206
*1247 FILLER_0_30_230
*1248 FILLER_0_30_256
*1249 FILLER_0_30_268
*1250 FILLER_0_30_29
*1251 FILLER_0_30_3
*1252 FILLER_0_30_41
*1253 FILLER_0_30_54
*1254 FILLER_0_30_66
*1255 FILLER_0_30_78
*1256 FILLER_0_30_85
*1257 FILLER_0_30_98
*1258 FILLER_0_31_107
*1259 FILLER_0_31_133
*1260 FILLER_0_31_145
*1261 FILLER_0_31_169
*1262 FILLER_0_31_194
*1263 FILLER_0_31_225
*1264 FILLER_0_31_261
*1265 FILLER_0_31_269
*1266 FILLER_0_31_3
*1267 FILLER_0_31_37
*1268 FILLER_0_31_60
*1269 FILLER_0_31_64
*1270 FILLER_0_31_73
*1271 FILLER_0_32_105
*1272 FILLER_0_32_138
*1273 FILLER_0_32_149
*1274 FILLER_0_32_161
*1275 FILLER_0_32_173
*1276 FILLER_0_32_185
*1277 FILLER_0_32_195
*1278 FILLER_0_32_197
*1279 FILLER_0_32_209
*1280 FILLER_0_32_216
*1281 FILLER_0_32_224
*1282 FILLER_0_32_250
*1283 FILLER_0_32_265
*1284 FILLER_0_32_29
*1285 FILLER_0_32_3
*1286 FILLER_0_32_33
*1287 FILLER_0_32_76
*1288 FILLER_0_32_80
*1289 FILLER_0_33_108
*1290 FILLER_0_33_113
*1291 FILLER_0_33_123
*1292 FILLER_0_33_129
*1293 FILLER_0_33_150
*1294 FILLER_0_33_158
*1295 FILLER_0_33_167
*1296 FILLER_0_33_169
*1297 FILLER_0_33_17
*1298 FILLER_0_33_198
*1299 FILLER_0_33_210
*1300 FILLER_0_33_218
*1301 FILLER_0_33_252
*1302 FILLER_0_33_263
*1303 FILLER_0_33_28
*1304 FILLER_0_33_3
*1305 FILLER_0_33_40
*1306 FILLER_0_33_48
*1307 FILLER_0_33_65
*1308 FILLER_0_33_77
*1309 FILLER_0_33_85
*1310 FILLER_0_33_99
*1311 FILLER_0_34_108
*1312 FILLER_0_34_120
*1313 FILLER_0_34_135
*1314 FILLER_0_34_15
*1315 FILLER_0_34_161
*1316 FILLER_0_34_195
*1317 FILLER_0_34_21
*1318 FILLER_0_34_217
*1319 FILLER_0_34_244
*1320 FILLER_0_34_25
*1321 FILLER_0_34_253
*1322 FILLER_0_34_265
*1323 FILLER_0_34_3
*1324 FILLER_0_34_38
*1325 FILLER_0_34_46
*1326 FILLER_0_34_56
*1327 FILLER_0_34_74
*1328 FILLER_0_34_82
*1329 FILLER_0_34_85
*1330 FILLER_0_34_96
*1331 FILLER_0_35_106
*1332 FILLER_0_35_122
*1333 FILLER_0_35_17
*1334 FILLER_0_35_189
*1335 FILLER_0_35_197
*1336 FILLER_0_35_219
*1337 FILLER_0_35_223
*1338 FILLER_0_35_234
*1339 FILLER_0_35_248
*1340 FILLER_0_35_260
*1341 FILLER_0_35_266
*1342 FILLER_0_35_41
*1343 FILLER_0_35_53
*1344 FILLER_0_35_76
*1345 FILLER_0_35_9
*1346 FILLER_0_36_135
*1347 FILLER_0_36_15
*1348 FILLER_0_36_180
*1349 FILLER_0_36_189
*1350 FILLER_0_36_195
*1351 FILLER_0_36_214
*1352 FILLER_0_36_241
*1353 FILLER_0_36_249
*1354 FILLER_0_36_253
*1355 FILLER_0_36_265
*1356 FILLER_0_36_27
*1357 FILLER_0_36_29
*1358 FILLER_0_36_3
*1359 FILLER_0_36_41
*1360 FILLER_0_36_47
*1361 FILLER_0_36_68
*1362 FILLER_0_36_80
*1363 FILLER_0_37_105
*1364 FILLER_0_37_110
*1365 FILLER_0_37_130
*1366 FILLER_0_37_142
*1367 FILLER_0_37_15
*1368 FILLER_0_37_152
*1369 FILLER_0_37_164
*1370 FILLER_0_37_169
*1371 FILLER_0_37_181
*1372 FILLER_0_37_193
*1373 FILLER_0_37_223
*1374 FILLER_0_37_225
*1375 FILLER_0_37_250
*1376 FILLER_0_37_262
*1377 FILLER_0_37_270
*1378 FILLER_0_37_3
*1379 FILLER_0_37_38
*1380 FILLER_0_37_53
*1381 FILLER_0_37_57
*1382 FILLER_0_37_68
*1383 FILLER_0_37_76
*1384 FILLER_0_38_119
*1385 FILLER_0_38_131
*1386 FILLER_0_38_139
*1387 FILLER_0_38_141
*1388 FILLER_0_38_15
*1389 FILLER_0_38_153
*1390 FILLER_0_38_161
*1391 FILLER_0_38_169
*1392 FILLER_0_38_175
*1393 FILLER_0_38_185
*1394 FILLER_0_38_189
*1395 FILLER_0_38_231
*1396 FILLER_0_38_242
*1397 FILLER_0_38_253
*1398 FILLER_0_38_265
*1399 FILLER_0_38_27
*1400 FILLER_0_38_29
*1401 FILLER_0_38_3
*1402 FILLER_0_38_55
*1403 FILLER_0_38_96
*1404 FILLER_0_39_102
*1405 FILLER_0_39_106
*1406 FILLER_0_39_113
*1407 FILLER_0_39_117
*1408 FILLER_0_39_126
*1409 FILLER_0_39_15
*1410 FILLER_0_39_151
*1411 FILLER_0_39_161
*1412 FILLER_0_39_167
*1413 FILLER_0_39_223
*1414 FILLER_0_39_252
*1415 FILLER_0_39_264
*1416 FILLER_0_39_27
*1417 FILLER_0_39_270
*1418 FILLER_0_39_3
*1419 FILLER_0_39_35
*1420 FILLER_0_39_57
*1421 FILLER_0_39_90
*1422 FILLER_0_3_101
*1423 FILLER_0_3_141
*1424 FILLER_0_3_149
*1425 FILLER_0_3_15
*1426 FILLER_0_3_154
*1427 FILLER_0_3_164
*1428 FILLER_0_3_187
*1429 FILLER_0_3_199
*1430 FILLER_0_3_211
*1431 FILLER_0_3_223
*1432 FILLER_0_3_245
*1433 FILLER_0_3_257
*1434 FILLER_0_3_269
*1435 FILLER_0_3_27
*1436 FILLER_0_3_3
*1437 FILLER_0_3_39
*1438 FILLER_0_3_51
*1439 FILLER_0_3_55
*1440 FILLER_0_3_57
*1441 FILLER_0_40_101
*1442 FILLER_0_40_15
*1443 FILLER_0_40_162
*1444 FILLER_0_40_195
*1445 FILLER_0_40_205
*1446 FILLER_0_40_246
*1447 FILLER_0_40_253
*1448 FILLER_0_40_265
*1449 FILLER_0_40_27
*1450 FILLER_0_40_29
*1451 FILLER_0_40_3
*1452 FILLER_0_40_41
*1453 FILLER_0_40_52
*1454 FILLER_0_40_64
*1455 FILLER_0_40_78
*1456 FILLER_0_40_85
*1457 FILLER_0_40_97
*1458 FILLER_0_41_122
*1459 FILLER_0_41_128
*1460 FILLER_0_41_15
*1461 FILLER_0_41_165
*1462 FILLER_0_41_192
*1463 FILLER_0_41_223
*1464 FILLER_0_41_251
*1465 FILLER_0_41_263
*1466 FILLER_0_41_27
*1467 FILLER_0_41_3
*1468 FILLER_0_41_35
*1469 FILLER_0_41_71
*1470 FILLER_0_42_137
*1471 FILLER_0_42_141
*1472 FILLER_0_42_165
*1473 FILLER_0_42_171
*1474 FILLER_0_42_18
*1475 FILLER_0_42_245
*1476 FILLER_0_42_251
*1477 FILLER_0_42_26
*1478 FILLER_0_42_261
*1479 FILLER_0_42_29
*1480 FILLER_0_42_41
*1481 FILLER_0_42_6
*1482 FILLER_0_42_74
*1483 FILLER_0_42_80
*1484 FILLER_0_43_113
*1485 FILLER_0_43_15
*1486 FILLER_0_43_209
*1487 FILLER_0_43_222
*1488 FILLER_0_43_225
*1489 FILLER_0_43_246
*1490 FILLER_0_43_258
*1491 FILLER_0_43_27
*1492 FILLER_0_43_270
*1493 FILLER_0_43_3
*1494 FILLER_0_43_39
*1495 FILLER_0_43_47
*1496 FILLER_0_43_57
*1497 FILLER_0_43_78
*1498 FILLER_0_44_113
*1499 FILLER_0_44_137
*1500 FILLER_0_44_15
*1501 FILLER_0_44_156
*1502 FILLER_0_44_160
*1503 FILLER_0_44_194
*1504 FILLER_0_44_197
*1505 FILLER_0_44_209
*1506 FILLER_0_44_240
*1507 FILLER_0_44_253
*1508 FILLER_0_44_265
*1509 FILLER_0_44_27
*1510 FILLER_0_44_29
*1511 FILLER_0_44_3
*1512 FILLER_0_44_41
*1513 FILLER_0_44_77
*1514 FILLER_0_44_83
*1515 FILLER_0_45_104
*1516 FILLER_0_45_113
*1517 FILLER_0_45_118
*1518 FILLER_0_45_135
*1519 FILLER_0_45_139
*1520 FILLER_0_45_141
*1521 FILLER_0_45_153
*1522 FILLER_0_45_163
*1523 FILLER_0_45_167
*1524 FILLER_0_45_169
*1525 FILLER_0_45_173
*1526 FILLER_0_45_185
*1527 FILLER_0_45_193
*1528 FILLER_0_45_197
*1529 FILLER_0_45_202
*1530 FILLER_0_45_208
*1531 FILLER_0_45_21
*1532 FILLER_0_45_218
*1533 FILLER_0_45_225
*1534 FILLER_0_45_237
*1535 FILLER_0_45_244
*1536 FILLER_0_45_253
*1537 FILLER_0_45_265
*1538 FILLER_0_45_27
*1539 FILLER_0_45_35
*1540 FILLER_0_45_47
*1541 FILLER_0_45_55
*1542 FILLER_0_45_57
*1543 FILLER_0_45_65
*1544 FILLER_0_45_69
*1545 FILLER_0_45_81
*1546 FILLER_0_45_85
*1547 FILLER_0_45_9
*1548 FILLER_0_45_93
*1549 FILLER_0_4_102
*1550 FILLER_0_4_123
*1551 FILLER_0_4_138
*1552 FILLER_0_4_141
*1553 FILLER_0_4_153
*1554 FILLER_0_4_166
*1555 FILLER_0_4_174
*1556 FILLER_0_4_186
*1557 FILLER_0_4_192
*1558 FILLER_0_4_197
*1559 FILLER_0_4_209
*1560 FILLER_0_4_21
*1561 FILLER_0_4_221
*1562 FILLER_0_4_233
*1563 FILLER_0_4_245
*1564 FILLER_0_4_251
*1565 FILLER_0_4_253
*1566 FILLER_0_4_27
*1567 FILLER_0_4_29
*1568 FILLER_0_4_41
*1569 FILLER_0_4_49
*1570 FILLER_0_4_56
*1571 FILLER_0_4_62
*1572 FILLER_0_4_66
*1573 FILLER_0_4_78
*1574 FILLER_0_4_85
*1575 FILLER_0_4_9
*1576 FILLER_0_5_106
*1577 FILLER_0_5_113
*1578 FILLER_0_5_125
*1579 FILLER_0_5_135
*1580 FILLER_0_5_147
*1581 FILLER_0_5_15
*1582 FILLER_0_5_159
*1583 FILLER_0_5_164
*1584 FILLER_0_5_169
*1585 FILLER_0_5_178
*1586 FILLER_0_5_189
*1587 FILLER_0_5_211
*1588 FILLER_0_5_223
*1589 FILLER_0_5_225
*1590 FILLER_0_5_233
*1591 FILLER_0_5_244
*1592 FILLER_0_5_256
*1593 FILLER_0_5_268
*1594 FILLER_0_5_27
*1595 FILLER_0_5_3
*1596 FILLER_0_5_55
*1597 FILLER_0_5_57
*1598 FILLER_0_5_71
*1599 FILLER_0_5_75
*1600 FILLER_0_5_79
*1601 FILLER_0_5_83
*1602 FILLER_0_5_90
*1603 FILLER_0_5_94
*1604 FILLER_0_6_107
*1605 FILLER_0_6_111
*1606 FILLER_0_6_117
*1607 FILLER_0_6_125
*1608 FILLER_0_6_134
*1609 FILLER_0_6_141
*1610 FILLER_0_6_15
*1611 FILLER_0_6_153
*1612 FILLER_0_6_163
*1613 FILLER_0_6_175
*1614 FILLER_0_6_206
*1615 FILLER_0_6_239
*1616 FILLER_0_6_251
*1617 FILLER_0_6_253
*1618 FILLER_0_6_265
*1619 FILLER_0_6_27
*1620 FILLER_0_6_29
*1621 FILLER_0_6_3
*1622 FILLER_0_6_37
*1623 FILLER_0_6_62
*1624 FILLER_0_6_71
*1625 FILLER_0_6_83
*1626 FILLER_0_6_90
*1627 FILLER_0_7_106
*1628 FILLER_0_7_113
*1629 FILLER_0_7_124
*1630 FILLER_0_7_130
*1631 FILLER_0_7_139
*1632 FILLER_0_7_158
*1633 FILLER_0_7_166
*1634 FILLER_0_7_169
*1635 FILLER_0_7_185
*1636 FILLER_0_7_208
*1637 FILLER_0_7_220
*1638 FILLER_0_7_23
*1639 FILLER_0_7_265
*1640 FILLER_0_7_35
*1641 FILLER_0_7_64
*1642 FILLER_0_7_83
*1643 FILLER_0_8_104
*1644 FILLER_0_8_11
*1645 FILLER_0_8_126
*1646 FILLER_0_8_131
*1647 FILLER_0_8_174
*1648 FILLER_0_8_18
*1649 FILLER_0_8_180
*1650 FILLER_0_8_188
*1651 FILLER_0_8_193
*1652 FILLER_0_8_197
*1653 FILLER_0_8_209
*1654 FILLER_0_8_217
*1655 FILLER_0_8_239
*1656 FILLER_0_8_251
*1657 FILLER_0_8_258
*1658 FILLER_0_8_269
*1659 FILLER_0_8_29
*1660 FILLER_0_8_3
*1661 FILLER_0_8_41
*1662 FILLER_0_8_49
*1663 FILLER_0_8_58
*1664 FILLER_0_8_85
*1665 FILLER_0_8_96
*1666 FILLER_0_9_104
*1667 FILLER_0_9_113
*1668 FILLER_0_9_121
*1669 FILLER_0_9_140
*1670 FILLER_0_9_15
*1671 FILLER_0_9_155
*1672 FILLER_0_9_163
*1673 FILLER_0_9_167
*1674 FILLER_0_9_177
*1675 FILLER_0_9_198
*1676 FILLER_0_9_210
*1677 FILLER_0_9_219
*1678 FILLER_0_9_223
*1679 FILLER_0_9_265
*1680 FILLER_0_9_27
*1681 FILLER_0_9_3
*1682 FILLER_0_9_39
*1683 FILLER_0_9_51
*1684 FILLER_0_9_55
*1685 FILLER_0_9_69
*1686 FILLER_0_9_81
*1687 FILLER_0_9_85
*1688 FILLER_0_9_92
*1689 PHY_0
*1690 PHY_1
*1691 PHY_10
*1692 PHY_11
*1693 PHY_12
*1694 PHY_13
*1695 PHY_14
*1696 PHY_15
*1697 PHY_16
*1698 PHY_17
*1699 PHY_18