*SPEF "ieee 1481-1999"
*DESIGN "Eighty_Twos"
*DATE "11:11:11 Fri 11 11, 1111"
*VENDOR "OpenRCX"
*PROGRAM "Parallel Extraction"
*VERSION "1.0"
*DESIGN_FLOW "NAME_SCOPE LOCAL" "PIN_CAP NONE"
*DIVIDER /
*DELIMITER :
*BUS_DELIMITER []
*T_UNIT 1 NS
*C_UNIT 1 PF
*R_UNIT 1 OHM
*L_UNIT 1 HENRY

*NAME_MAP
*3 clk
*4 cs
*5 gpi[0]
*6 gpi[10]
*7 gpi[11]
*8 gpi[12]
*9 gpi[13]
*10 gpi[14]
*11 gpi[15]
*12 gpi[16]
*13 gpi[17]
*14 gpi[18]
*15 gpi[19]
*16 gpi[1]
*17 gpi[20]
*18 gpi[21]
*19 gpi[22]
*20 gpi[23]
*21 gpi[24]
*22 gpi[25]
*23 gpi[26]
*24 gpi[27]
*25 gpi[28]
*26 gpi[29]
*27 gpi[2]
*28 gpi[30]
*29 gpi[31]
*30 gpi[32]
*31 gpi[33]
*32 gpi[3]
*33 gpi[4]
*34 gpi[5]
*35 gpi[6]
*36 gpi[7]
*37 gpi[8]
*38 gpi[9]
*39 gpo[0]
*40 gpo[10]
*41 gpo[11]
*42 gpo[12]
*43 gpo[13]
*44 gpo[14]
*45 gpo[15]
*46 gpo[16]
*47 gpo[17]
*48 gpo[18]
*49 gpo[19]
*50 gpo[1]
*51 gpo[20]
*52 gpo[21]
*53 gpo[22]
*54 gpo[23]
*55 gpo[24]
*56 gpo[25]
*57 gpo[26]
*58 gpo[27]
*59 gpo[28]
*60 gpo[29]
*61 gpo[2]
*62 gpo[30]
*63 gpo[31]
*64 gpo[32]
*65 gpo[33]
*66 gpo[3]
*67 gpo[4]
*68 gpo[5]
*69 gpo[6]
*70 gpo[7]
*71 gpo[8]
*72 gpo[9]
*73 nrst
*74 ALU\.flags_to_alu\[0\]
*75 ALU\.flags_to_alu\[1\]
*76 ALU\.flags_to_alu\[2\]
*77 ALU\.flags_to_alu\[3\]
*78 ALU\.flags_to_alu\[4\]
*79 ALU\.flags_to_alu\[5\]
*80 ALU\.flags_to_alu\[6\]
*81 ALU\.flags_to_alu\[7\]
*82 ALU\.immediate\[0\]
*83 ALU\.immediate\[10\]
*84 ALU\.immediate\[11\]
*85 ALU\.immediate\[12\]
*86 ALU\.immediate\[13\]
*87 ALU\.immediate\[14\]
*88 ALU\.immediate\[15\]
*89 ALU\.immediate\[1\]
*90 ALU\.immediate\[2\]
*91 ALU\.immediate\[3\]
*92 ALU\.immediate\[4\]
*93 ALU\.immediate\[5\]
*94 ALU\.immediate\[6\]
*95 ALU\.immediate\[7\]
*96 ALU\.immediate\[8\]
*97 ALU\.immediate\[9\]
*98 ByteBuffer\.counter\[0\]
*99 ByteBuffer\.counter\[1\]
*100 ByteBuffer\.instr\[16\]
*101 ByteBuffer\.instr\[17\]
*102 ByteBuffer\.instr\[18\]
*103 ByteBuffer\.instr\[19\]
*104 ByteBuffer\.instr\[20\]
*105 ByteBuffer\.instr\[21\]
*106 ByteBuffer\.instr\[22\]
*107 ByteBuffer\.instr\[23\]
*108 ByteBuffer\.next_counter\[0\]
*109 ByteBuffer\.next_counter\[1\]
*110 ByteDecoder\.num_bytes\[1\]
*111 ByteDecoder\.num_bytes\[2\]
*112 ByteDecoder\.num_bytes\[3\]
*113 ByteDecoder\.state\[0\]
*114 ByteDecoder\.state\[1\]
*115 FSM\.next_state\[0\]
*116 FSM\.next_state\[1\]
*117 MemControl\.state\[0\]
*118 MemControl\.state\[1\]
*119 MemControl\.state\[2\]
*120 PC\.i_mem_addr\[0\]
*121 PC\.i_mem_addr\[10\]
*122 PC\.i_mem_addr\[11\]
*123 PC\.i_mem_addr\[12\]
*124 PC\.i_mem_addr\[13\]
*125 PC\.i_mem_addr\[14\]
*126 PC\.i_mem_addr\[15\]
*127 PC\.i_mem_addr\[1\]
*128 PC\.i_mem_addr\[2\]
*129 PC\.i_mem_addr\[3\]
*130 PC\.i_mem_addr\[4\]
*131 PC\.i_mem_addr\[5\]
*132 PC\.i_mem_addr\[6\]
*133 PC\.i_mem_addr\[7\]
*134 PC\.i_mem_addr\[8\]
*135 PC\.i_mem_addr\[9\]
*136 RegFile\.A\[0\]
*137 RegFile\.A\[1\]
*138 RegFile\.A\[2\]
*139 RegFile\.A\[3\]
*140 RegFile\.A\[4\]
*141 RegFile\.A\[5\]
*142 RegFile\.A\[6\]
*143 RegFile\.A\[7\]
*144 RegFile\.B\[0\]
*145 RegFile\.B\[1\]
*146 RegFile\.B\[2\]
*147 RegFile\.B\[3\]
*148 RegFile\.B\[4\]
*149 RegFile\.B\[5\]
*150 RegFile\.B\[6\]
*151 RegFile\.B\[7\]
*152 RegFile\.C\[0\]
*153 RegFile\.C\[1\]
*154 RegFile\.C\[2\]
*155 RegFile\.C\[3\]
*156 RegFile\.C\[4\]
*157 RegFile\.C\[5\]
*158 RegFile\.C\[6\]
*159 RegFile\.C\[7\]
*160 RegFile\.D\[0\]
*161 RegFile\.D\[1\]
*162 RegFile\.D\[2\]
*163 RegFile\.D\[3\]
*164 RegFile\.D\[4\]
*165 RegFile\.D\[5\]
*166 RegFile\.D\[6\]
*167 RegFile\.D\[7\]
*168 RegFile\.E\[0\]
*169 RegFile\.E\[1\]
*170 RegFile\.E\[2\]
*171 RegFile\.E\[3\]
*172 RegFile\.E\[4\]
*173 RegFile\.E\[5\]
*174 RegFile\.E\[6\]
*175 RegFile\.E\[7\]
*176 RegFile\.H\[0\]
*177 RegFile\.H\[1\]
*178 RegFile\.H\[2\]
*179 RegFile\.H\[3\]
*180 RegFile\.H\[4\]
*181 RegFile\.H\[5\]
*182 RegFile\.H\[6\]
*183 RegFile\.H\[7\]
*184 RegFile\.L\[0\]
*185 RegFile\.L\[1\]
*186 RegFile\.L\[2\]
*187 RegFile\.L\[3\]
*188 RegFile\.L\[4\]
*189 RegFile\.L\[5\]
*190 RegFile\.L\[6\]
*191 RegFile\.L\[7\]
*192 _0000_
*193 _0001_
*194 _0066_
*195 _0067_
*196 _0068_
*197 _0069_
*198 _0070_
*199 _0071_
*200 _0072_
*201 _0073_
*202 _0074_
*203 _0075_
*204 _0076_
*205 _0077_
*206 _0078_
*207 _0079_
*208 _0080_
*209 _0081_
*210 _0082_
*211 _0083_
*212 _0084_
*213 _0085_
*214 _0086_
*215 _0087_
*216 _0088_
*217 _0089_
*218 _0090_
*219 _0091_
*220 _0092_
*221 _0093_
*222 _0094_
*223 _0095_
*224 _0096_
*225 _0097_
*226 _0098_
*227 _0099_
*228 _0100_
*229 _0101_
*230 _0102_
*231 _0103_
*232 _0104_
*233 _0105_
*234 _0106_
*235 _0107_
*236 _0108_
*237 _0109_
*238 _0110_
*239 _0111_
*240 _0112_
*241 _0113_
*242 _0114_
*243 _0115_
*244 _0116_
*245 _0117_
*246 _0118_
*247 _0119_
*248 _0120_
*249 _0121_
*250 _0122_
*251 _0123_
*252 _0124_
*253 _0125_
*254 _0126_
*255 _0127_
*256 _0128_
*257 _0129_
*258 _0130_
*259 _0131_
*260 _0132_
*261 _0133_
*262 _0134_
*263 _0135_
*264 _0136_
*265 _0137_
*266 _0138_
*267 _0139_
*268 _0140_
*269 _0141_
*270 _0142_
*271 _0143_
*272 _0144_
*273 _0145_
*274 _0146_
*275 _0147_
*276 _0148_
*277 _0149_
*278 _0150_
*279 _0151_
*280 _0152_
*281 _0153_
*282 _0154_
*283 _0155_
*284 _0156_
*285 _0157_
*286 _0158_
*287 _0159_
*288 _0160_
*289 _0161_
*290 _0162_
*291 _0163_
*292 _0164_
*293 _0165_
*294 _0166_
*295 _0167_
*296 _0168_
*297 _0169_
*298 _0170_
*299 _0171_
*300 _0172_
*301 _0173_
*302 _0174_
*303 _0175_
*304 _0176_
*305 _0177_
*306 _0178_
*307 _0179_
*308 _0180_
*309 _0181_
*310 _0182_
*311 _0183_
*312 _0184_
*313 _0185_
*314 _0186_
*315 _0187_
*316 _0188_
*317 _0189_
*318 _0190_
*319 _0191_
*320 _0192_
*321 _0193_
*322 _0194_
*323 _0195_
*324 _0196_
*325 _0197_
*326 _0198_
*327 _0199_
*328 _0200_
*329 _0201_
*330 _0202_
*331 _0203_
*332 _0204_
*333 _0205_
*334 _0206_
*335 _0207_
*336 _0208_
*337 _0209_
*338 _0210_
*339 _0211_
*340 _0212_
*341 _0213_
*342 _0214_
*343 _0215_
*344 _0216_
*345 _0217_
*346 _0218_
*347 _0219_
*348 _0220_
*349 _0221_
*350 _0222_
*351 _0223_
*352 _0224_
*353 _0225_
*354 _0226_
*355 _0227_
*356 _0228_
*357 _0229_
*358 _0230_
*359 _0231_
*360 _0232_
*361 _0233_
*362 _0234_
*363 _0235_
*364 _0236_
*365 _0237_
*366 _0238_
*367 _0239_
*368 _0240_
*369 _0241_
*370 _0242_
*371 _0243_
*372 _0244_
*373 _0245_
*374 _0246_
*375 _0247_
*376 _0248_
*377 _0249_
*378 _0250_
*379 _0251_
*380 _0252_
*381 _0253_
*382 _0254_
*383 _0255_
*384 _0256_
*385 _0257_
*386 _0258_
*387 _0259_
*388 _0260_
*389 _0261_
*390 _0262_
*391 _0263_
*392 _0264_
*393 _0265_
*394 _0266_
*395 _0267_
*396 _0268_
*397 _0269_
*398 _0270_
*399 _0271_
*400 _0272_
*401 _0273_
*402 _0274_
*403 _0275_
*404 _0276_
*405 _0277_
*406 _0278_
*407 _0279_
*408 _0280_
*409 _0281_
*410 _0282_
*411 _0283_
*412 _0284_
*413 _0285_
*414 _0286_
*415 _0287_
*416 _0288_
*417 _0289_
*418 _0290_
*419 _0291_
*420 _0292_
*421 _0293_
*422 _0294_
*423 _0295_
*424 _0296_
*425 _0297_
*426 _0298_
*427 _0299_
*428 _0300_
*429 _0301_
*430 _0302_
*431 _0303_
*432 _0304_
*433 _0305_
*434 _0306_
*435 _0307_
*436 _0308_
*437 _0309_
*438 _0310_
*439 _0311_
*440 _0312_
*441 _0313_
*442 _0314_
*443 _0315_
*444 _0316_
*445 _0317_
*446 _0318_
*447 _0319_
*448 _0320_
*449 _0321_
*450 _0322_
*451 _0323_
*452 _0324_
*453 _0325_
*454 _0326_
*455 _0327_
*456 _0328_
*457 _0329_
*458 _0330_
*459 _0331_
*460 _0332_
*461 _0333_
*462 _0334_
*463 _0335_
*464 _0336_
*465 _0337_
*466 _0338_
*467 _0339_
*468 _0340_
*469 _0341_
*470 _0342_
*471 _0343_
*472 _0344_
*473 _0345_
*474 _0346_
*475 _0347_
*476 _0348_
*477 _0349_
*478 _0350_
*479 _0351_
*480 _0352_
*481 _0353_
*482 _0354_
*483 _0355_
*484 _0356_
*485 _0357_
*486 _0358_
*487 _0359_
*488 _0360_
*489 _0361_
*490 _0362_
*491 _0363_
*492 _0364_
*493 _0365_
*494 _0366_
*495 _0367_
*496 _0368_
*497 _0369_
*498 _0370_
*499 _0371_
*500 _0372_
*501 _0373_
*502 _0374_
*503 _0375_
*504 _0376_
*505 _0377_
*506 _0378_
*507 _0379_
*508 _0380_
*509 _0381_
*510 _0382_
*511 _0383_
*512 _0384_
*513 _0385_
*514 _0386_
*515 _0387_
*516 _0388_
*517 _0389_
*518 _0390_
*519 _0391_
*520 _0392_
*521 _0393_
*522 _0394_
*523 _0395_
*524 _0396_
*525 _0397_
*526 _0398_
*527 _0399_
*528 _0400_
*529 _0401_
*530 _0402_
*531 _0403_
*532 _0404_
*533 _0405_
*534 _0406_
*535 _0407_
*536 _0408_
*537 _0409_
*538 _0410_
*539 _0411_
*540 _0412_
*541 _0413_
*542 _0414_
*543 _0415_
*544 _0416_
*545 _0417_
*546 _0418_
*547 _0419_
*548 _0420_
*549 _0421_
*550 _0422_
*551 _0423_
*552 _0424_
*553 _0425_
*554 _0426_
*555 _0427_
*556 _0428_
*557 _0429_
*558 _0430_
*559 _0431_
*560 _0432_
*561 _0433_
*562 _0434_
*563 _0435_
*564 _0436_
*565 _0437_
*566 _0438_
*567 _0439_
*568 _0440_
*569 _0441_
*570 _0442_
*571 _0443_
*572 _0444_
*573 _0445_
*574 _0446_
*575 _0447_
*576 _0448_
*577 _0449_
*578 _0450_
*579 _0451_
*580 _0452_
*581 _0453_
*582 _0454_
*583 _0455_
*584 _0456_
*585 _0457_
*586 _0458_
*587 _0459_
*588 _0460_
*589 _0461_
*590 _0462_
*591 _0463_
*592 _0464_
*593 _0465_
*594 _0466_
*595 _0467_
*596 _0468_
*597 _0469_
*598 _0470_
*599 _0471_
*600 _0472_
*601 _0473_
*602 _0474_
*603 _0475_
*604 _0476_
*605 _0477_
*606 _0478_
*607 _0479_
*608 _0480_
*609 _0481_
*610 _0482_
*611 _0483_
*612 _0484_
*613 _0485_
*614 _0486_
*615 _0487_
*616 _0488_
*617 _0489_
*618 _0490_
*619 _0491_
*620 _0492_
*621 _0493_
*622 _0494_
*623 _0495_
*624 _0496_
*625 _0497_
*626 _0498_
*627 _0499_
*628 _0500_
*629 _0501_
*630 _0502_
*631 _0503_
*632 _0504_
*633 _0505_
*634 _0506_
*635 _0507_
*636 _0508_
*637 _0509_
*638 _0510_
*639 _0511_
*640 _0512_
*641 _0513_
*642 _0514_
*643 _0515_
*644 _0516_
*645 _0517_
*646 _0518_
*647 _0519_
*648 _0520_
*649 _0521_
*650 _0522_
*651 _0523_
*652 _0524_
*653 _0525_
*654 _0526_
*655 _0527_
*656 _0528_
*657 _0529_
*658 _0530_
*659 _0531_
*660 _0532_
*661 _0533_
*662 _0534_
*663 _0535_
*664 _0536_
*665 _0537_
*666 _0538_
*667 _0539_
*668 _0540_
*669 _0541_
*670 _0542_
*671 _0543_
*672 _0544_
*673 _0545_
*674 _0546_
*675 _0547_
*676 _0548_
*677 _0549_
*678 _0550_
*679 _0551_
*680 _0552_
*681 _0553_
*682 _0554_
*683 _0555_
*684 _0556_
*685 _0557_
*686 _0558_
*687 _0559_
*688 _0560_
*689 _0561_
*690 _0562_
*691 _0563_
*692 _0564_
*693 _0565_
*694 _0566_
*695 _0567_
*696 _0568_
*697 _0569_
*698 _0570_
*699 _0571_
*700 _0572_
*701 _0573_
*702 _0574_
*703 _0575_
*704 _0576_
*705 _0577_
*706 _0578_
*707 _0579_
*708 _0580_
*709 _0581_
*710 _0582_
*711 _0583_
*712 _0584_
*713 _0585_
*714 _0586_
*715 _0587_
*716 _0588_
*717 _0589_
*718 _0590_
*719 _0591_
*720 _0592_
*721 _0593_
*722 _0594_
*723 _0595_
*724 _0596_
*725 _0597_
*726 _0598_
*727 _0599_
*728 _0600_
*729 _0601_
*730 _0602_
*731 _0603_
*732 _0604_
*733 _0605_
*734 _0606_
*735 _0607_
*736 _0608_
*737 _0609_
*738 _0610_
*739 _0611_
*740 _0612_
*741 _0613_
*742 _0614_
*743 _0615_
*744 _0616_
*745 _0617_
*746 _0618_
*747 _0619_
*748 _0620_
*749 _0621_
*750 _0622_
*751 _0623_
*752 _0624_
*753 _0625_
*754 _0626_
*755 _0627_
*756 _0628_
*757 _0629_
*758 _0630_
*759 _0631_
*760 _0632_
*761 _0633_
*762 _0634_
*763 _0635_
*764 _0636_
*765 _0637_
*766 _0638_
*767 _0639_
*768 _0640_
*769 _0641_
*770 _0642_
*771 _0643_
*772 _0644_
*773 _0645_
*774 _0646_
*775 _0647_
*776 _0648_
*777 _0649_
*778 _0650_
*779 _0651_
*780 _0652_
*781 _0653_
*782 _0654_
*783 _0655_
*784 _0656_
*785 _0657_
*786 _0658_
*787 _0659_
*788 _0660_
*789 _0661_
*790 _0662_
*791 _0663_
*792 _0664_
*793 _0665_
*794 _0666_
*795 _0667_
*796 _0668_
*797 _0669_
*798 _0670_
*799 _0671_
*800 _0672_
*801 _0673_
*802 _0674_
*803 _0675_
*804 _0676_
*805 _0677_
*806 _0678_
*807 _0679_
*808 _0680_
*809 _0681_
*810 _0682_
*811 _0683_
*812 _0684_
*813 _0685_
*814 _0686_
*815 _0687_
*816 _0688_
*817 _0689_
*818 _0690_
*819 _0691_
*820 _0692_
*821 _0693_
*822 _0694_
*823 _0695_
*824 _0696_
*825 _0697_
*826 _0698_
*827 _0699_
*828 _0700_
*829 _0701_
*830 _0702_
*831 _0703_
*832 _0704_
*833 _0705_
*834 _0706_
*835 _0707_
*836 _0708_
*837 _0709_
*838 _0710_
*839 _0711_
*840 _0712_
*841 _0713_
*842 _0714_
*843 _0715_
*844 _0716_
*845 _0717_
*846 _0718_
*847 _0719_
*848 _0720_
*849 _0721_
*850 _0722_
*851 _0723_
*852 _0724_
*853 _0725_
*854 _0726_
*855 _0727_
*856 _0728_
*857 _0729_
*858 _0730_
*859 _0731_
*860 _0732_
*861 _0733_
*862 _0734_
*863 _0735_
*864 _0736_
*865 _0737_
*866 _0738_
*867 _0739_
*868 _0740_
*869 _0741_
*870 _0742_
*871 _0743_
*872 _0744_
*873 _0745_
*874 _0746_
*875 _0747_
*876 _0748_
*877 _0749_
*878 _0750_
*879 _0751_
*880 _0752_
*881 _0753_
*882 _0754_
*883 _0755_
*884 _0756_
*885 _0757_
*886 _0758_
*887 _0759_
*888 _0760_
*889 _0761_
*890 _0762_
*891 _0763_
*892 _0764_
*893 _0765_
*894 _0766_
*895 _0767_
*896 _0768_
*897 _0769_
*898 _0770_
*899 _0771_
*900 _0772_
*901 _0773_
*902 _0774_
*903 _0775_
*904 _0776_
*905 _0777_
*906 _0778_
*907 _0779_
*908 _0780_
*909 _0781_
*910 _0782_
*911 _0783_
*912 _0784_
*913 _0785_
*914 _0786_
*915 _0787_
*916 _0788_
*917 _0789_
*918 _0790_
*919 _0791_
*920 _0792_
*921 _0793_
*922 _0794_
*923 _0795_
*924 _0796_
*925 _0797_
*926 _0798_
*927 _0799_
*928 _0800_
*929 _0801_
*930 _0802_
*931 _0803_
*932 _0804_
*933 _0805_
*934 _0806_
*935 _0807_
*936 _0808_
*937 _0809_
*938 _0810_
*939 _0811_
*940 _0812_
*941 _0813_
*942 _0814_
*943 _0815_
*944 _0816_
*945 _0817_
*946 _0818_
*947 _0819_
*948 _0820_
*949 _0821_
*950 _0822_
*951 _0823_
*952 _0824_
*953 _0825_
*954 _0826_
*955 _0827_
*956 _0828_
*957 _0829_
*958 _0830_
*959 _0831_
*960 _0832_
*961 _0833_
*962 _0834_
*963 _0835_
*964 _0836_
*965 _0837_
*966 _0838_
*967 _0839_
*968 _0840_
*969 _0841_
*970 _0842_
*971 _0843_
*972 _0844_
*973 _0845_
*974 _0846_
*975 _0847_
*976 _0848_
*977 _0849_
*978 _0850_
*979 _0851_
*980 _0852_
*981 _0853_
*982 _0854_
*983 _0855_
*984 _0856_
*985 _0857_
*986 _0858_
*987 _0859_
*988 _0860_
*989 _0861_
*990 _0862_
*991 _0863_
*992 _0864_
*993 _0865_
*994 _0866_
*995 _0867_
*996 _0868_
*997 _0869_
*998 _0870_
*999 _0871_
*1000 _0872_
*1001 _0873_
*1002 _0874_
*1003 _0875_
*1004 _0876_
*1005 _0877_
*1006 _0878_
*1007 _0879_
*1008 _0880_
*1009 _0881_
*1010 _0882_
*1011 _0883_
*1012 _0884_
*1013 _0885_
*1014 _0886_
*1015 _0887_
*1016 _0888_
*1017 _0889_
*1018 _0890_
*1019 _0891_
*1020 _0892_
*1021 _0893_
*1022 _0894_
*1023 _0895_
*1024 _0896_
*1025 _0897_
*1026 _0898_
*1027 _0899_
*1028 _0900_
*1029 _0901_
*1030 _0902_
*1031 _0903_
*1032 _0904_
*1033 _0905_
*1034 _0906_
*1035 _0907_
*1036 _0908_
*1037 _0909_
*1038 _0910_
*1039 _0911_
*1040 _0912_
*1041 _0913_
*1042 _0914_
*1043 _0915_
*1044 _0916_
*1045 _0917_
*1046 _0918_
*1047 _0919_
*1048 _0920_
*1049 _0921_
*1050 _0922_
*1051 _0923_
*1052 _0924_
*1053 _0925_
*1054 _0926_
*1055 _0927_
*1056 _0928_
*1057 _0929_
*1058 _0930_
*1059 _0931_
*1060 _0932_
*1061 _0933_
*1062 _0934_
*1063 _0935_
*1064 _0936_
*1065 _0937_
*1066 _0938_
*1067 _0939_
*1068 _0940_
*1069 _0941_
*1070 _0942_
*1071 _0943_
*1072 _0944_
*1073 _0945_
*1074 _0946_
*1075 _0947_
*1076 _0948_
*1077 _0949_
*1078 _0950_
*1079 _0951_
*1080 _0952_
*1081 _0953_
*1082 _0954_
*1083 _0955_
*1084 _0956_
*1085 _0957_
*1086 _0958_
*1087 _0959_
*1088 _0960_
*1089 _0961_
*1090 _0962_
*1091 _0963_
*1092 _0964_
*1093 _0965_
*1094 _0966_
*1095 _0967_
*1096 _0968_
*1097 _0969_
*1098 _0970_
*1099 _0971_
*1100 _0972_
*1101 _0973_
*1102 _0974_
*1103 _0975_
*1104 _0976_
*1105 _0977_
*1106 _0978_
*1107 _0979_
*1108 _0980_
*1109 _0981_
*1110 _0982_
*1111 _0983_
*1112 _0984_
*1113 _0985_
*1114 _0986_
*1115 _0987_
*1116 _0988_
*1117 _0989_
*1118 _0990_
*1119 _0991_
*1120 _0992_
*1121 _0993_
*1122 _0994_
*1123 _0995_
*1124 _0996_
*1125 _0997_
*1126 _0998_
*1127 _0999_
*1128 _1000_
*1129 _1001_
*1130 _1002_
*1131 _1003_
*1132 _1004_
*1133 _1005_
*1134 _1006_
*1135 _1007_
*1136 _1008_
*1137 _1009_
*1138 _1010_
*1139 _1011_
*1140 _1012_
*1141 _1013_
*1142 _1014_
*1143 _1015_
*1144 _1016_
*1145 _1017_
*1146 _1018_
*1147 _1019_
*1148 _1020_
*1149 _1021_
*1150 _1022_
*1151 _1023_
*1152 _1024_
*1153 _1025_
*1154 _1026_
*1155 _1027_
*1156 _1028_
*1157 _1029_
*1158 _1030_
*1159 _1031_
*1160 _1032_
*1161 _1033_
*1162 _1034_
*1163 _1035_
*1164 _1036_
*1165 _1037_
*1166 _1038_
*1167 _1039_
*1168 _1040_
*1169 _1041_
*1170 _1042_
*1171 _1043_
*1172 _1044_
*1173 _1045_
*1174 _1046_
*1175 _1047_
*1176 _1048_
*1177 _1049_
*1178 _1050_
*1179 _1051_
*1180 _1052_
*1181 _1053_
*1182 _1054_
*1183 _1055_
*1184 _1056_
*1185 _1057_
*1186 _1058_
*1187 _1059_
*1188 _1060_
*1189 _1061_
*1190 _1062_
*1191 _1063_
*1192 _1064_
*1193 _1065_
*1194 _1066_
*1195 _1067_
*1196 _1068_
*1197 _1069_
*1198 _1070_
*1199 _1071_
*1200 _1072_
*1201 _1073_
*1202 _1074_
*1203 _1075_
*1204 _1076_
*1205 _1077_
*1206 _1078_
*1207 _1079_
*1208 _1080_
*1209 _1081_
*1210 _1082_
*1211 _1083_
*1212 _1084_
*1213 _1085_
*1214 _1086_
*1215 _1087_
*1216 _1088_
*1217 _1089_
*1218 _1090_
*1219 _1091_
*1220 _1092_
*1221 _1093_
*1222 _1094_
*1223 _1095_
*1224 _1096_
*1225 _1097_
*1226 _1098_
*1227 _1099_
*1228 _1100_
*1229 _1101_
*1230 _1102_
*1231 _1103_
*1232 _1104_
*1233 _1105_
*1234 _1106_
*1235 _1107_
*1236 _1108_
*1237 _1109_
*1238 _1110_
*1239 _1111_
*1240 _1112_
*1241 _1113_
*1242 _1114_
*1243 _1115_
*1244 _1116_
*1245 _1117_
*1246 _1118_
*1247 _1119_
*1248 _1120_
*1249 _1121_
*1250 _1122_
*1251 _1123_
*1252 _1124_
*1253 _1125_
*1254 _1126_
*1255 _1127_
*1256 _1128_
*1257 _1129_
*1258 _1130_
*1259 _1131_
*1260 _1132_
*1261 _1133_
*1262 _1134_
*1263 _1135_
*1264 _1136_
*1265 _1137_
*1266 _1138_
*1267 _1139_
*1268 _1140_
*1269 _1141_
*1270 _1142_
*1271 _1143_
*1272 _1144_
*1273 _1145_
*1274 _1146_
*1275 _1147_
*1276 _1148_
*1277 _1149_
*1278 _1150_
*1279 _1151_
*1280 _1152_
*1281 _1153_
*1282 _1154_
*1283 _1155_
*1284 _1156_
*1285 _1157_
*1286 _1158_
*1287 _1159_
*1288 _1160_
*1289 _1161_
*1290 _1162_
*1291 _1163_
*1292 _1164_
*1293 _1165_
*1294 _1166_
*1295 _1167_
*1296 _1168_
*1297 _1169_
*1298 _1170_
*1299 _1171_
*1300 _1172_
*1301 _1173_
*1302 _1174_
*1303 _1175_
*1304 _1176_
*1305 _1177_
*1306 _1178_
*1307 _1179_
*1308 _1180_
*1309 _1181_
*1310 _1182_
*1311 _1183_
*1312 _1184_
*1313 _1185_
*1314 _1186_
*1315 _1187_
*1316 _1188_
*1317 _1189_
*1318 _1190_
*1319 _1191_
*1320 _1192_
*1321 _1193_
*1322 _1194_
*1323 _1195_
*1324 _1196_
*1325 _1197_
*1326 _1198_
*1327 _1199_
*1328 _1200_
*1329 _1201_
*1330 _1202_
*1331 _1203_
*1332 _1204_
*1333 _1205_
*1334 _1206_
*1335 _1207_
*1336 _1208_
*1337 _1209_
*1338 _1210_
*1339 _1211_
*1340 _1212_
*1341 _1213_
*1342 _1214_
*1343 _1215_
*1344 _1216_
*1345 _1217_
*1346 _1218_
*1347 _1219_
*1348 _1220_
*1349 _1221_
*1350 _1222_
*1351 _1223_
*1352 _1224_
*1353 _1225_
*1354 _1226_
*1355 _1227_
*1356 _1228_
*1357 _1229_
*1358 _1230_
*1359 _1231_
*1360 _1232_
*1361 _1233_
*1362 _1234_
*1363 _1235_
*1364 _1236_
*1365 _1237_
*1366 _1238_
*1367 _1239_
*1368 _1240_
*1369 _1241_
*1370 _1242_
*1371 _1243_
*1372 _1244_
*1373 _1245_
*1374 _1246_
*1375 _1247_
*1376 _1248_
*1377 _1249_
*1378 _1250_
*1379 _1251_
*1380 _1252_
*1381 _1253_
*1382 _1254_
*1383 _1255_
*1384 _1256_
*1385 _1257_
*1386 _1258_
*1387 _1259_
*1388 _1260_
*1389 _1261_
*1390 _1262_
*1391 _1263_
*1392 _1264_
*1393 _1265_
*1394 _1266_
*1395 _1267_
*1396 _1268_
*1397 _1269_
*1398 _1270_
*1399 _1271_
*1400 _1272_
*1401 _1273_
*1402 _1274_
*1403 _1275_
*1404 clknet_0__0514_
*1405 clknet_0__0515_
*1406 clknet_0__0516_
*1407 clknet_0__0517_
*1408 clknet_0_clk
*1409 clknet_1_0__leaf__0514_
*1410 clknet_1_0__leaf__0515_
*1411 clknet_1_0__leaf__0516_
*1412 clknet_1_0__leaf__0517_
*1413 clknet_1_1__leaf__0514_
*1414 clknet_1_1__leaf__0515_
*1415 clknet_1_1__leaf__0516_
*1416 clknet_1_1__leaf__0517_
*1417 clknet_2_0__leaf_clk
*1418 clknet_2_1__leaf_clk
*1419 clknet_2_2__leaf_clk
*1420 clknet_2_3__leaf_clk
*1421 net1
*1422 net10
*1423 net100
*1424 net101
*1425 net102
*1426 net103
*1427 net104
*1428 net105
*1429 net106
*1430 net107
*1431 net108
*1432 net109
*1433 net11
*1434 net110
*1435 net111
*1436 net112
*1437 net113
*1438 net114
*1439 net115
*1440 net116
*1441 net117
*1442 net118
*1443 net119
*1444 net12
*1445 net120
*1446 net121
*1447 net122
*1448 net123
*1449 net124
*1450 net125
*1451 net126
*1452 net127
*1453 net128
*1454 net129
*1455 net13
*1456 net130
*1457 net131
*1458 net132
*1459 net133
*1460 net134
*1461 net135
*1462 net136
*1463 net137
*1464 net138
*1465 net139
*1466 net14
*1467 net140
*1468 net141
*1469 net142
*1470 net143
*1471 net15
*1472 net16
*1473 net17
*1474 net18
*1475 net19
*1476 net2
*1477 net20
*1478 net21
*1479 net22
*1480 net23
*1481 net24
*1482 net25
*1483 net26
*1484 net27
*1485 net28
*1486 net29
*1487 net3
*1488 net30
*1489 net31
*1490 net32
*1491 net33
*1492 net34
*1493 net35
*1494 net36
*1495 net37
*1496 net38
*1497 net39
*1498 net4
*1499 net40
*1500 net41
*1501 net42
*1502 net43
*1503 net44
*1504 net45
*1505 net46
*1506 net47
*1507 net48
*1508 net49
*1509 net5
*1510 net50
*1511 net51
*1512 net52
*1513 net53
*1514 net54
*1515 net55
*1516 net56
*1517 net57
*1518 net58
*1519 net59
*1520 net6
*1521 net60
*1522 net61
*1523 net62
*1524 net63
*1525 net64
*1526 net65
*1527 net66
*1528 net67
*1529 net68
*1530 net69
*1531 net7
*1532 net70
*1533 net71
*1534 net72
*1535 net73
*1536 net74
*1537 net75
*1538 net76
*1539 net77
*1540 net78
*1541 net79
*1542 net8
*1543 net80
*1544 net81
*1545 net82
*1546 net83
*1547 net84
*1548 net85
*1549 net86
*1550 net87
*1551 net88
*1552 net89
*1553 net9
*1554 net90
*1555 net91
*1556 net92
*1557 net93
*1558 net94
*1559 net95
*1560 net96
*1561 net97
*1562 net98
*1563 net99
*1564 FILLER_0_0_105
*1565 FILLER_0_0_109
*1566 FILLER_0_0_127
*1567 FILLER_0_0_139
*1568 FILLER_0_0_153
*1569 FILLER_0_0_16
*1570 FILLER_0_0_172
*1571 FILLER_0_0_184
*1572 FILLER_0_0_197
*1573 FILLER_0_0_212
*1574 FILLER_0_0_225
*1575 FILLER_0_0_237
*1576 FILLER_0_0_249
*1577 FILLER_0_0_253
*1578 FILLER_0_0_264
*1579 FILLER_0_0_276
*1580 FILLER_0_0_287
*1581 FILLER_0_0_29
*1582 FILLER_0_0_299
*1583 FILLER_0_0_307
*1584 FILLER_0_0_309
*1585 FILLER_0_0_321
*1586 FILLER_0_0_331
*1587 FILLER_0_0_335
*1588 FILLER_0_0_337
*1589 FILLER_0_0_349
*1590 FILLER_0_0_361
*1591 FILLER_0_0_365
*1592 FILLER_0_0_37
*1593 FILLER_0_0_373
*1594 FILLER_0_0_378
*1595 FILLER_0_0_390
*1596 FILLER_0_0_399
*1597 FILLER_0_0_49
*1598 FILLER_0_0_55
*1599 FILLER_0_0_57
*1600 FILLER_0_0_65
*1601 FILLER_0_0_77
*1602 FILLER_0_0_83
*1603 FILLER_0_0_85
*1604 FILLER_0_0_9
*1605 FILLER_0_0_97
*1606 FILLER_0_10_103
*1607 FILLER_0_10_111
*1608 FILLER_0_10_149
*1609 FILLER_0_10_15
*1610 FILLER_0_10_171
*1611 FILLER_0_10_175
*1612 FILLER_0_10_184
*1613 FILLER_0_10_192
*1614 FILLER_0_10_197
*1615 FILLER_0_10_217
*1616 FILLER_0_10_229
*1617 FILLER_0_10_240
*1618 FILLER_0_10_253
*1619 FILLER_0_10_263
*1620 FILLER_0_10_27
*1621 FILLER_0_10_275
*1622 FILLER_0_10_287
*1623 FILLER_0_10_29
*1624 FILLER_0_10_293
*1625 FILLER_0_10_3
*1626 FILLER_0_10_305
*1627 FILLER_0_10_322
*1628 FILLER_0_10_334
*1629 FILLER_0_10_341
*1630 FILLER_0_10_353
*1631 FILLER_0_10_361
*1632 FILLER_0_10_365
*1633 FILLER_0_10_377
*1634 FILLER_0_10_389
*1635 FILLER_0_10_44
*1636 FILLER_0_10_55
*1637 FILLER_0_10_85
*1638 FILLER_0_11_105
*1639 FILLER_0_11_111
*1640 FILLER_0_11_113
*1641 FILLER_0_11_125
*1642 FILLER_0_11_15
*1643 FILLER_0_11_156
*1644 FILLER_0_11_169
*1645 FILLER_0_11_177
*1646 FILLER_0_11_186
*1647 FILLER_0_11_198
*1648 FILLER_0_11_202
*1649 FILLER_0_11_232
*1650 FILLER_0_11_248
*1651 FILLER_0_11_260
*1652 FILLER_0_11_27
*1653 FILLER_0_11_284
*1654 FILLER_0_11_288
*1655 FILLER_0_11_3
*1656 FILLER_0_11_303
*1657 FILLER_0_11_315
*1658 FILLER_0_11_320
*1659 FILLER_0_11_332
*1660 FILLER_0_11_337
*1661 FILLER_0_11_343
*1662 FILLER_0_11_347
*1663 FILLER_0_11_359
*1664 FILLER_0_11_371
*1665 FILLER_0_11_383
*1666 FILLER_0_11_391
*1667 FILLER_0_11_393
*1668 FILLER_0_11_57
*1669 FILLER_0_11_69
*1670 FILLER_0_11_93
*1671 FILLER_0_12_101
*1672 FILLER_0_12_122
*1673 FILLER_0_12_141
*1674 FILLER_0_12_15
*1675 FILLER_0_12_154
*1676 FILLER_0_12_165
*1677 FILLER_0_12_177
*1678 FILLER_0_12_181
*1679 FILLER_0_12_190
*1680 FILLER_0_12_197
*1681 FILLER_0_12_229
*1682 FILLER_0_12_238
*1683 FILLER_0_12_250
*1684 FILLER_0_12_27
*1685 FILLER_0_12_274
*1686 FILLER_0_12_286
*1687 FILLER_0_12_29
*1688 FILLER_0_12_293
*1689 FILLER_0_12_3
*1690 FILLER_0_12_305
*1691 FILLER_0_12_336
*1692 FILLER_0_12_35
*1693 FILLER_0_12_365
*1694 FILLER_0_12_377
*1695 FILLER_0_12_389
*1696 FILLER_0_12_39
*1697 FILLER_0_12_51
*1698 FILLER_0_12_63
*1699 FILLER_0_12_75
*1700 FILLER_0_12_83
*1701 FILLER_0_12_85
*1702 FILLER_0_12_97
*1703 FILLER_0_13_113
*1704 FILLER_0_13_117
*1705 FILLER_0_13_15
*1706 FILLER_0_13_159
*1707 FILLER_0_13_169
*1708 FILLER_0_13_189
*1709 FILLER_0_13_197
*1710 FILLER_0_13_218
*1711 FILLER_0_13_225
*1712 FILLER_0_13_238
*1713 FILLER_0_13_244
*1714 FILLER_0_13_252
*1715 FILLER_0_13_261
*1716 FILLER_0_13_27
*1717 FILLER_0_13_275
*1718 FILLER_0_13_279
*1719 FILLER_0_13_288
*1720 FILLER_0_13_3
*1721 FILLER_0_13_300
*1722 FILLER_0_13_308
*1723 FILLER_0_13_317
*1724 FILLER_0_13_331
*1725 FILLER_0_13_335
*1726 FILLER_0_13_337
*1727 FILLER_0_13_370
*1728 FILLER_0_13_382
*1729 FILLER_0_13_39
*1730 FILLER_0_13_390
*1731 FILLER_0_13_393
*1732 FILLER_0_13_51
*1733 FILLER_0_13_55
*1734 FILLER_0_13_78
*1735 FILLER_0_13_90
*1736 FILLER_0_14_106
*1737 FILLER_0_14_118
*1738 FILLER_0_14_129
*1739 FILLER_0_14_137
*1740 FILLER_0_14_141
*1741 FILLER_0_14_15
*1742 FILLER_0_14_185
*1743 FILLER_0_14_193
*1744 FILLER_0_14_197
*1745 FILLER_0_14_213
*1746 FILLER_0_14_225
*1747 FILLER_0_14_234
*1748 FILLER_0_14_242
*1749 FILLER_0_14_251
*1750 FILLER_0_14_253
*1751 FILLER_0_14_267
*1752 FILLER_0_14_27
*1753 FILLER_0_14_29
*1754 FILLER_0_14_298
*1755 FILLER_0_14_3
*1756 FILLER_0_14_304
*1757 FILLER_0_14_309
*1758 FILLER_0_14_321
*1759 FILLER_0_14_346
*1760 FILLER_0_14_350
*1761 FILLER_0_14_354
*1762 FILLER_0_14_362
*1763 FILLER_0_14_365
*1764 FILLER_0_14_377
*1765 FILLER_0_14_389
*1766 FILLER_0_14_61
*1767 FILLER_0_14_65
*1768 FILLER_0_14_76
*1769 FILLER_0_15_109
*1770 FILLER_0_15_128
*1771 FILLER_0_15_136
*1772 FILLER_0_15_145
*1773 FILLER_0_15_15
*1774 FILLER_0_15_151
*1775 FILLER_0_15_166
*1776 FILLER_0_15_169
*1777 FILLER_0_15_221
*1778 FILLER_0_15_231
*1779 FILLER_0_15_262
*1780 FILLER_0_15_27
*1781 FILLER_0_15_274
*1782 FILLER_0_15_281
*1783 FILLER_0_15_3
*1784 FILLER_0_15_305
*1785 FILLER_0_15_313
*1786 FILLER_0_15_325
*1787 FILLER_0_15_330
*1788 FILLER_0_15_346
*1789 FILLER_0_15_360
*1790 FILLER_0_15_372
*1791 FILLER_0_15_384
*1792 FILLER_0_15_39
*1793 FILLER_0_15_393
*1794 FILLER_0_15_44
*1795 FILLER_0_15_54
*1796 FILLER_0_15_57
*1797 FILLER_0_15_69
*1798 FILLER_0_15_79
*1799 FILLER_0_15_97
*1800 FILLER_0_16_107
*1801 FILLER_0_16_122
*1802 FILLER_0_16_126
*1803 FILLER_0_16_130
*1804 FILLER_0_16_141
*1805 FILLER_0_16_15
*1806 FILLER_0_16_150
*1807 FILLER_0_16_173
*1808 FILLER_0_16_184
*1809 FILLER_0_16_195
*1810 FILLER_0_16_204
*1811 FILLER_0_16_247
*1812 FILLER_0_16_251
*1813 FILLER_0_16_253
*1814 FILLER_0_16_264
*1815 FILLER_0_16_27
*1816 FILLER_0_16_281
*1817 FILLER_0_16_289
*1818 FILLER_0_16_29
*1819 FILLER_0_16_3
*1820 FILLER_0_16_301
*1821 FILLER_0_16_307
*1822 FILLER_0_16_323
*1823 FILLER_0_16_335
*1824 FILLER_0_16_347
*1825 FILLER_0_16_359
*1826 FILLER_0_16_363
*1827 FILLER_0_16_365
*1828 FILLER_0_16_37
*1829 FILLER_0_16_377
*1830 FILLER_0_16_389
*1831 FILLER_0_16_44
*1832 FILLER_0_16_56
*1833 FILLER_0_16_82
*1834 FILLER_0_16_85
*1835 FILLER_0_16_97
*1836 FILLER_0_17_117
*1837 FILLER_0_17_12
*1838 FILLER_0_17_166
*1839 FILLER_0_17_174
*1840 FILLER_0_17_196
*1841 FILLER_0_17_208
*1842 FILLER_0_17_219
*1843 FILLER_0_17_223
*1844 FILLER_0_17_225
*1845 FILLER_0_17_24
*1846 FILLER_0_17_263
*1847 FILLER_0_17_275
*1848 FILLER_0_17_279
*1849 FILLER_0_17_281
*1850 FILLER_0_17_293
*1851 FILLER_0_17_305
*1852 FILLER_0_17_316
*1853 FILLER_0_17_330
*1854 FILLER_0_17_337
*1855 FILLER_0_17_36
*1856 FILLER_0_17_370
*1857 FILLER_0_17_382
*1858 FILLER_0_17_390
*1859 FILLER_0_17_393
*1860 FILLER_0_17_48
*1861 FILLER_0_17_52
*1862 FILLER_0_17_69
*1863 FILLER_0_17_81
*1864 FILLER_0_18_115
*1865 FILLER_0_18_121
*1866 FILLER_0_18_125
*1867 FILLER_0_18_137
*1868 FILLER_0_18_141
*1869 FILLER_0_18_15
*1870 FILLER_0_18_174
*1871 FILLER_0_18_182
*1872 FILLER_0_18_192
*1873 FILLER_0_18_197
*1874 FILLER_0_18_209
*1875 FILLER_0_18_221
*1876 FILLER_0_18_225
*1877 FILLER_0_18_248
*1878 FILLER_0_18_267
*1879 FILLER_0_18_27
*1880 FILLER_0_18_279
*1881 FILLER_0_18_289
*1882 FILLER_0_18_29
*1883 FILLER_0_18_3
*1884 FILLER_0_18_301
*1885 FILLER_0_18_307
*1886 FILLER_0_18_309
*1887 FILLER_0_18_335
*1888 FILLER_0_18_347
*1889 FILLER_0_18_36
*1890 FILLER_0_18_365
*1891 FILLER_0_18_377
*1892 FILLER_0_18_389
*1893 FILLER_0_18_40
*1894 FILLER_0_18_67
*1895 FILLER_0_18_79
*1896 FILLER_0_18_83
*1897 FILLER_0_18_85
*1898 FILLER_0_18_89
*1899 FILLER_0_19_109
*1900 FILLER_0_19_113
*1901 FILLER_0_19_119
*1902 FILLER_0_19_127
*1903 FILLER_0_19_15
*1904 FILLER_0_19_150
*1905 FILLER_0_19_162
*1906 FILLER_0_19_169
*1907 FILLER_0_19_181
*1908 FILLER_0_19_193
*1909 FILLER_0_19_197
*1910 FILLER_0_19_221
*1911 FILLER_0_19_225
*1912 FILLER_0_19_229
*1913 FILLER_0_19_23
*1914 FILLER_0_19_250
*1915 FILLER_0_19_254
*1916 FILLER_0_19_281
*1917 FILLER_0_19_297
*1918 FILLER_0_19_3
*1919 FILLER_0_19_305
*1920 FILLER_0_19_314
*1921 FILLER_0_19_326
*1922 FILLER_0_19_357
*1923 FILLER_0_19_369
*1924 FILLER_0_19_381
*1925 FILLER_0_19_389
*1926 FILLER_0_19_393
*1927 FILLER_0_19_49
*1928 FILLER_0_19_55
*1929 FILLER_0_19_57
*1930 FILLER_0_19_69
*1931 FILLER_0_19_77
*1932 FILLER_0_1_110
*1933 FILLER_0_1_12
*1934 FILLER_0_1_167
*1935 FILLER_0_1_169
*1936 FILLER_0_1_175
*1937 FILLER_0_1_197
*1938 FILLER_0_1_24
*1939 FILLER_0_1_246
*1940 FILLER_0_1_273
*1941 FILLER_0_1_278
*1942 FILLER_0_1_301
*1943 FILLER_0_1_313
*1944 FILLER_0_1_321
*1945 FILLER_0_1_328
*1946 FILLER_0_1_335
*1947 FILLER_0_1_337
*1948 FILLER_0_1_349
*1949 FILLER_0_1_36
*1950 FILLER_0_1_361
*1951 FILLER_0_1_373
*1952 FILLER_0_1_385
*1953 FILLER_0_1_393
*1954 FILLER_0_1_48
*1955 FILLER_0_1_57
*1956 FILLER_0_1_61
*1957 FILLER_0_1_65
*1958 FILLER_0_1_77
*1959 FILLER_0_1_89
*1960 FILLER_0_1_98
*1961 FILLER_0_20_137
*1962 FILLER_0_20_141
*1963 FILLER_0_20_15
*1964 FILLER_0_20_156
*1965 FILLER_0_20_166
*1966 FILLER_0_20_174
*1967 FILLER_0_20_189
*1968 FILLER_0_20_195
*1969 FILLER_0_20_197
*1970 FILLER_0_20_213
*1971 FILLER_0_20_225
*1972 FILLER_0_20_237
*1973 FILLER_0_20_249
*1974 FILLER_0_20_253
*1975 FILLER_0_20_263