*SPEF "ieee 1481-1999"
*DESIGN "Eighty_Twos"
*DATE "11:11:11 Fri 11 11, 1111"
*VENDOR "OpenRCX"
*PROGRAM "Parallel Extraction"
*VERSION "1.0"
*DESIGN_FLOW "NAME_SCOPE LOCAL" "PIN_CAP NONE"
*DIVIDER /
*DELIMITER :
*BUS_DELIMITER []
*T_UNIT 1 NS
*C_UNIT 1 PF
*R_UNIT 1 OHM
*L_UNIT 1 HENRY

*NAME_MAP
*1 clk
*2 cs
*3 gpi[0]
*4 gpi[10]
*5 gpi[11]
*6 gpi[12]
*7 gpi[13]
*8 gpi[14]
*9 gpi[15]
*10 gpi[16]
*11 gpi[17]
*12 gpi[18]
*13 gpi[19]
*14 gpi[1]
*15 gpi[20]
*16 gpi[21]
*17 gpi[22]
*18 gpi[23]
*19 gpi[24]
*20 gpi[25]
*21 gpi[26]
*22 gpi[27]
*23 gpi[28]
*24 gpi[29]
*25 gpi[2]
*26 gpi[30]
*27 gpi[31]
*28 gpi[32]
*29 gpi[33]
*30 gpi[3]
*31 gpi[4]
*32 gpi[5]
*33 gpi[6]
*34 gpi[7]
*35 gpi[8]
*36 gpi[9]
*37 gpo[0]
*38 gpo[10]
*39 gpo[11]
*40 gpo[12]
*41 gpo[13]
*42 gpo[14]
*43 gpo[15]
*44 gpo[16]
*45 gpo[17]
*46 gpo[18]
*47 gpo[19]
*48 gpo[1]
*49 gpo[20]
*50 gpo[21]
*51 gpo[22]
*52 gpo[23]
*53 gpo[24]
*54 gpo[25]
*55 gpo[26]
*56 gpo[27]
*57 gpo[28]
*58 gpo[29]
*59 gpo[2]
*60 gpo[30]
*61 gpo[31]
*62 gpo[32]
*63 gpo[33]
*64 gpo[3]
*65 gpo[4]
*66 gpo[5]
*67 gpo[6]
*68 gpo[7]
*69 gpo[8]
*70 gpo[9]
*71 nrst
*72 store_en
*75 ALU\.flags_to_alu\[0\]
*76 ALU\.flags_to_alu\[1\]
*77 ALU\.flags_to_alu\[2\]
*78 ALU\.flags_to_alu\[3\]
*79 ALU\.flags_to_alu\[4\]
*80 ALU\.flags_to_alu\[5\]
*81 ALU\.flags_to_alu\[6\]
*82 ALU\.flags_to_alu\[7\]
*83 ALU\.immediate\[0\]
*84 ALU\.immediate\[10\]
*85 ALU\.immediate\[11\]
*86 ALU\.immediate\[12\]
*87 ALU\.immediate\[13\]
*88 ALU\.immediate\[14\]
*89 ALU\.immediate\[15\]
*90 ALU\.immediate\[1\]
*91 ALU\.immediate\[2\]
*92 ALU\.immediate\[3\]
*93 ALU\.immediate\[4\]
*94 ALU\.immediate\[5\]
*95 ALU\.immediate\[6\]
*96 ALU\.immediate\[7\]
*97 ALU\.immediate\[8\]
*98 ALU\.immediate\[9\]
*99 ByteBuffer\.counter\[0\]
*100 ByteBuffer\.counter\[1\]
*101 ByteBuffer\.instr\[16\]
*102 ByteBuffer\.instr\[17\]
*103 ByteBuffer\.instr\[18\]
*104 ByteBuffer\.instr\[19\]
*105 ByteBuffer\.instr\[20\]
*106 ByteBuffer\.instr\[21\]
*107 ByteBuffer\.instr\[22\]
*108 ByteBuffer\.instr\[23\]
*109 ByteBuffer\.next_counter\[0\]
*110 ByteBuffer\.next_counter\[1\]
*111 ByteDecoder\.num_bytes\[1\]
*112 ByteDecoder\.num_bytes\[2\]
*113 ByteDecoder\.num_bytes\[3\]
*114 ByteDecoder\.state\[0\]
*115 ByteDecoder\.state\[1\]
*116 FSM\.next_state\[0\]
*117 FSM\.next_state\[1\]
*118 MemControl\.state\[0\]
*119 MemControl\.state\[1\]
*120 MemControl\.state\[2\]
*121 PC\.i_mem_addr\[0\]
*122 PC\.i_mem_addr\[10\]
*123 PC\.i_mem_addr\[11\]
*124 PC\.i_mem_addr\[12\]
*125 PC\.i_mem_addr\[13\]
*126 PC\.i_mem_addr\[14\]
*127 PC\.i_mem_addr\[15\]
*128 PC\.i_mem_addr\[1\]
*129 PC\.i_mem_addr\[2\]
*130 PC\.i_mem_addr\[3\]
*131 PC\.i_mem_addr\[4\]
*132 PC\.i_mem_addr\[5\]
*133 PC\.i_mem_addr\[6\]
*134 PC\.i_mem_addr\[7\]
*135 PC\.i_mem_addr\[8\]
*136 PC\.i_mem_addr\[9\]
*137 RegFile\.A\[0\]
*138 RegFile\.A\[1\]
*139 RegFile\.A\[2\]
*140 RegFile\.A\[3\]
*141 RegFile\.A\[4\]
*142 RegFile\.A\[5\]
*143 RegFile\.A\[6\]
*144 RegFile\.A\[7\]
*145 RegFile\.B\[0\]
*146 RegFile\.B\[1\]
*147 RegFile\.B\[2\]
*148 RegFile\.B\[3\]
*149 RegFile\.B\[4\]
*150 RegFile\.B\[5\]
*151 RegFile\.B\[6\]
*152 RegFile\.B\[7\]
*153 RegFile\.C\[0\]
*154 RegFile\.C\[1\]
*155 RegFile\.C\[2\]
*156 RegFile\.C\[3\]
*157 RegFile\.C\[4\]
*158 RegFile\.C\[5\]
*159 RegFile\.C\[6\]
*160 RegFile\.C\[7\]
*161 RegFile\.D\[0\]
*162 RegFile\.D\[1\]
*163 RegFile\.D\[2\]
*164 RegFile\.D\[3\]
*165 RegFile\.D\[4\]
*166 RegFile\.D\[5\]
*167 RegFile\.D\[6\]
*168 RegFile\.D\[7\]
*169 RegFile\.E\[0\]
*170 RegFile\.E\[1\]
*171 RegFile\.E\[2\]
*172 RegFile\.E\[3\]
*173 RegFile\.E\[4\]
*174 RegFile\.E\[5\]
*175 RegFile\.E\[6\]
*176 RegFile\.E\[7\]
*177 RegFile\.H\[0\]
*178 RegFile\.H\[1\]
*179 RegFile\.H\[2\]
*180 RegFile\.H\[3\]
*181 RegFile\.H\[4\]
*182 RegFile\.H\[5\]
*183 RegFile\.H\[6\]
*184 RegFile\.H\[7\]
*185 RegFile\.L\[0\]
*186 RegFile\.L\[1\]
*187 RegFile\.L\[2\]
*188 RegFile\.L\[3\]
*189 RegFile\.L\[4\]
*190 RegFile\.L\[5\]
*191 RegFile\.L\[6\]
*192 RegFile\.L\[7\]
*193 _0000_
*194 _0001_
*195 _0066_
*196 _0067_
*197 _0068_
*198 _0069_
*199 _0070_
*200 _0071_
*201 _0072_
*202 _0073_
*203 _0074_
*204 _0075_
*205 _0076_
*206 _0077_
*207 _0078_
*208 _0079_
*209 _0080_
*210 _0081_
*211 _0082_
*212 _0083_
*213 _0084_
*214 _0085_
*215 _0086_
*216 _0087_
*217 _0088_
*218 _0089_
*219 _0090_
*220 _0091_
*221 _0092_
*222 _0093_
*223 _0094_
*224 _0095_
*225 _0096_
*226 _0097_
*227 _0098_
*228 _0099_
*229 _0100_
*230 _0101_
*231 _0102_
*232 _0103_
*233 _0104_
*234 _0105_
*235 _0106_
*236 _0107_
*237 _0108_
*238 _0109_
*239 _0110_
*240 _0111_
*241 _0112_
*242 _0113_
*243 _0114_
*244 _0115_
*245 _0116_
*246 _0117_
*247 _0118_
*248 _0119_
*249 _0120_
*250 _0121_
*251 _0122_
*252 _0123_
*253 _0124_
*254 _0125_
*255 _0126_
*256 _0127_
*257 _0128_
*258 _0129_
*259 _0130_
*260 _0131_
*261 _0132_
*262 _0133_
*263 _0134_
*264 _0135_
*265 _0136_
*266 _0137_
*267 _0138_
*268 _0139_
*269 _0140_
*270 _0141_
*271 _0142_
*272 _0143_
*273 _0144_
*274 _0145_
*275 _0146_
*276 _0147_
*277 _0148_
*278 _0149_
*279 _0150_
*280 _0151_
*281 _0152_
*282 _0153_
*283 _0154_
*284 _0155_
*285 _0156_
*286 _0157_
*287 _0158_
*288 _0159_
*289 _0160_
*290 _0161_
*291 _0162_
*292 _0163_
*293 _0164_
*294 _0165_
*295 _0166_
*296 _0167_
*297 _0168_
*298 _0169_
*299 _0170_
*300 _0171_
*301 _0172_
*302 _0173_
*303 _0174_
*304 _0175_
*305 _0176_
*306 _0177_
*307 _0178_
*308 _0179_
*309 _0180_
*310 _0181_
*311 _0182_
*312 _0183_
*313 _0184_
*314 _0185_
*315 _0186_
*316 _0187_
*317 _0188_
*318 _0189_
*319 _0190_
*320 _0191_
*321 _0192_
*322 _0193_
*323 _0194_
*324 _0195_
*325 _0196_
*326 _0197_
*327 _0198_
*328 _0199_
*329 _0200_
*330 _0201_
*331 _0202_
*332 _0203_
*333 _0204_
*334 _0205_
*335 _0206_
*336 _0207_
*337 _0208_
*338 _0209_
*339 _0210_
*340 _0211_
*341 _0212_
*342 _0213_
*343 _0214_
*344 _0215_
*345 _0216_
*346 _0217_
*347 _0218_
*348 _0219_
*349 _0220_
*350 _0221_
*351 _0222_
*352 _0223_
*353 _0224_
*354 _0225_
*355 _0226_
*356 _0227_
*357 _0228_
*358 _0229_
*359 _0230_
*360 _0231_
*361 _0232_
*362 _0233_
*363 _0234_
*364 _0235_
*365 _0236_
*366 _0237_
*367 _0238_
*368 _0239_
*369 _0240_
*370 _0241_
*371 _0242_
*372 _0243_
*373 _0244_
*374 _0245_
*375 _0246_
*376 _0247_
*377 _0248_
*378 _0249_
*379 _0250_
*380 _0251_
*381 _0252_
*382 _0253_
*383 _0254_
*384 _0255_
*385 _0256_
*386 _0257_
*387 _0258_
*388 _0259_
*389 _0260_
*390 _0261_
*391 _0262_
*392 _0263_
*393 _0264_
*394 _0265_
*395 _0266_
*396 _0267_
*397 _0268_
*398 _0269_
*399 _0270_
*400 _0271_
*401 _0272_
*402 _0273_
*403 _0274_
*404 _0275_
*405 _0276_
*406 _0277_
*407 _0278_
*408 _0279_
*409 _0280_
*410 _0281_
*411 _0282_
*412 _0283_
*413 _0284_
*414 _0285_
*415 _0286_
*416 _0287_
*417 _0288_
*418 _0289_
*419 _0290_
*420 _0291_
*421 _0292_
*422 _0293_
*423 _0294_
*424 _0295_
*425 _0296_
*426 _0297_
*427 _0298_
*428 _0299_
*429 _0300_
*430 _0301_
*431 _0302_
*432 _0303_
*433 _0304_
*434 _0305_
*435 _0306_
*436 _0307_
*437 _0308_
*438 _0309_
*439 _0310_
*440 _0311_
*441 _0312_
*442 _0313_
*443 _0314_
*444 _0315_
*445 _0316_
*446 _0317_
*447 _0318_
*448 _0319_
*449 _0320_
*450 _0321_
*451 _0322_
*452 _0323_
*453 _0324_
*454 _0325_
*455 _0326_
*456 _0327_
*457 _0328_
*458 _0329_
*459 _0330_
*460 _0331_
*461 _0332_
*462 _0333_
*463 _0334_
*464 _0335_
*465 _0336_
*466 _0337_
*467 _0338_
*468 _0339_
*469 _0340_
*470 _0341_
*471 _0342_
*472 _0343_
*473 _0344_
*474 _0345_
*475 _0346_
*476 _0347_
*477 _0348_
*478 _0349_
*479 _0350_
*480 _0351_
*481 _0352_
*482 _0353_
*483 _0354_
*484 _0355_
*485 _0356_
*486 _0357_
*487 _0358_
*488 _0359_
*489 _0360_
*490 _0361_
*491 _0362_
*492 _0363_
*493 _0364_
*494 _0365_
*495 _0366_
*496 _0367_
*497 _0368_
*498 _0369_
*499 _0370_
*500 _0371_
*501 _0372_
*502 _0373_
*503 _0374_
*504 _0375_
*505 _0376_
*506 _0377_
*507 _0378_
*508 _0379_
*509 _0380_
*510 _0381_
*511 _0382_
*512 _0383_
*513 _0384_
*514 _0385_
*515 _0386_
*516 _0387_
*517 _0388_
*518 _0389_
*519 _0390_
*520 _0391_
*521 _0392_
*522 _0393_
*523 _0394_
*524 _0395_
*525 _0396_
*526 _0397_
*527 _0398_
*528 _0399_
*529 _0400_
*530 _0401_
*531 _0402_
*532 _0403_
*533 _0404_
*534 _0405_
*535 _0406_
*536 _0407_
*537 _0408_
*538 _0409_
*539 _0410_
*540 _0411_
*541 _0412_
*542 _0413_
*543 _0414_
*544 _0415_
*545 _0416_
*546 _0417_
*547 _0418_
*548 _0419_
*549 _0420_
*550 _0421_
*551 _0422_
*552 _0423_
*553 _0424_
*554 _0425_
*555 _0426_
*556 _0427_
*557 _0428_
*558 _0429_
*559 _0430_
*560 _0431_
*561 _0432_
*562 _0433_
*563 _0434_
*564 _0435_
*565 _0436_
*566 _0437_
*567 _0438_
*568 _0439_
*569 _0440_
*570 _0441_
*571 _0442_
*572 _0443_
*573 _0444_
*574 _0445_
*575 _0446_
*576 _0447_
*577 _0448_
*578 _0449_
*579 _0450_
*580 _0451_
*581 _0452_
*582 _0453_
*583 _0454_
*584 _0455_
*585 _0456_
*586 _0457_
*587 _0458_
*588 _0459_
*589 _0460_
*590 _0461_
*591 _0462_
*592 _0463_
*593 _0464_
*594 _0465_
*595 _0466_
*596 _0467_
*597 _0468_
*598 _0469_
*599 _0470_
*600 _0471_
*601 _0472_
*602 _0473_
*603 _0474_
*604 _0475_
*605 _0476_
*606 _0477_
*607 _0478_
*608 _0479_
*609 _0480_
*610 _0481_
*611 _0482_
*612 _0483_
*613 _0484_
*614 _0485_
*615 _0486_
*616 _0487_
*617 _0488_
*618 _0489_
*619 _0490_
*620 _0491_
*621 _0492_
*622 _0493_
*623 _0494_
*624 _0495_
*625 _0496_
*626 _0497_
*627 _0498_
*628 _0499_
*629 _0500_
*630 _0501_
*631 _0502_
*632 _0503_
*633 _0504_
*634 _0505_
*635 _0506_
*636 _0507_
*637 _0508_
*638 _0509_
*639 _0510_
*640 _0511_
*641 _0512_
*642 _0513_
*643 _0514_
*644 _0515_
*645 _0516_
*646 _0517_
*647 _0518_
*648 _0519_
*649 _0520_
*650 _0521_
*651 _0522_
*652 _0523_
*653 _0524_
*654 _0525_
*655 _0526_
*656 _0527_
*657 _0528_
*658 _0529_
*659 _0530_
*660 _0531_
*661 _0532_
*662 _0533_
*663 _0534_
*664 _0535_
*665 _0536_
*666 _0537_
*667 _0538_
*668 _0539_
*669 _0540_
*670 _0541_
*671 _0542_
*672 _0543_
*673 _0544_
*674 _0545_
*675 _0546_
*676 _0547_
*677 _0548_
*678 _0549_
*679 _0550_
*680 _0551_
*681 _0552_
*682 _0553_
*683 _0554_
*684 _0555_
*685 _0556_
*686 _0557_
*687 _0558_
*688 _0559_
*689 _0560_
*690 _0561_
*691 _0562_
*692 _0563_
*693 _0564_
*694 _0565_
*695 _0566_
*696 _0567_
*697 _0568_
*698 _0569_
*699 _0570_
*700 _0571_
*701 _0572_
*702 _0573_
*703 _0574_
*704 _0575_
*705 _0576_
*706 _0577_
*707 _0578_
*708 _0579_
*709 _0580_
*710 _0581_
*711 _0582_
*712 _0583_
*713 _0584_
*714 _0585_
*715 _0586_
*716 _0587_
*717 _0588_
*718 _0589_
*719 _0590_
*720 _0591_
*721 _0592_
*722 _0593_
*723 _0594_
*724 _0595_
*725 _0596_
*726 _0597_
*727 _0598_
*728 _0599_
*729 _0600_
*730 _0601_
*731 _0602_
*732 _0603_
*733 _0604_
*734 _0605_
*735 _0606_
*736 _0607_
*737 _0608_
*738 _0609_
*739 _0610_
*740 _0611_
*741 _0612_
*742 _0613_
*743 _0614_
*744 _0615_
*745 _0616_
*746 _0617_
*747 _0618_
*748 _0619_
*749 _0620_
*750 _0621_
*751 _0622_
*752 _0623_
*753 _0624_
*754 _0625_
*755 _0626_
*756 _0627_
*757 _0628_
*758 _0629_
*759 _0630_
*760 _0631_
*761 _0632_
*762 _0633_
*763 _0634_
*764 _0635_
*765 _0636_
*766 _0637_
*767 _0638_
*768 _0639_
*769 _0640_
*770 _0641_
*771 _0642_
*772 _0643_
*773 _0644_
*774 _0645_
*775 _0646_
*776 _0647_
*777 _0648_
*778 _0649_
*779 _0650_
*780 _0651_
*781 _0652_
*782 _0653_
*783 _0654_
*784 _0655_
*785 _0656_
*786 _0657_
*787 _0658_
*788 _0659_
*789 _0660_
*790 _0661_
*791 _0662_
*792 _0663_
*793 _0664_
*794 _0665_
*795 _0666_
*796 _0667_
*797 _0668_
*798 _0669_
*799 _0670_
*800 _0671_
*801 _0672_
*802 _0673_
*803 _0674_
*804 _0675_
*805 _0676_
*806 _0677_
*807 _0678_
*808 _0679_
*809 _0680_
*810 _0681_
*811 _0682_
*812 _0683_
*813 _0684_
*814 _0685_
*815 _0686_
*816 _0687_
*817 _0688_
*818 _0689_
*819 _0690_
*820 _0691_
*821 _0692_
*822 _0693_
*823 _0694_
*824 _0695_
*825 _0696_
*826 _0697_
*827 _0698_
*828 _0699_
*829 _0700_
*830 _0701_
*831 _0702_
*832 _0703_
*833 _0704_
*834 _0705_
*835 _0706_
*836 _0707_
*837 _0708_
*838 _0709_
*839 _0710_
*840 _0711_
*841 _0712_
*842 _0713_
*843 _0714_
*844 _0715_
*845 _0716_
*846 _0717_
*847 _0718_
*848 _0719_
*849 _0720_
*850 _0721_
*851 _0722_
*852 _0723_
*853 _0724_
*854 _0725_
*855 _0726_
*856 _0727_
*857 _0728_
*858 _0729_
*859 _0730_
*860 _0731_
*861 _0732_
*862 _0733_
*863 _0734_
*864 _0735_
*865 _0736_
*866 _0737_
*867 _0738_
*868 _0739_
*869 _0740_
*870 _0741_
*871 _0742_
*872 _0743_
*873 _0744_
*874 _0745_
*875 _0746_
*876 _0747_
*877 _0748_
*878 _0749_
*879 _0750_
*880 _0751_
*881 _0752_
*882 _0753_
*883 _0754_
*884 _0755_
*885 _0756_
*886 _0757_
*887 _0758_
*888 _0759_
*889 _0760_
*890 _0761_
*891 _0762_
*892 _0763_
*893 _0764_
*894 _0765_
*895 _0766_
*896 _0767_
*897 _0768_
*898 _0769_
*899 _0770_
*900 _0771_
*901 _0772_
*902 _0773_
*903 _0774_
*904 _0775_
*905 _0776_
*906 _0777_
*907 _0778_
*908 _0779_
*909 _0780_
*910 _0781_
*911 _0782_
*912 _0783_
*913 _0784_
*914 _0785_
*915 _0786_
*916 _0787_
*917 _0788_
*918 _0789_
*919 _0790_
*920 _0791_
*921 _0792_
*922 _0793_
*923 _0794_
*924 _0795_
*925 _0796_
*926 _0797_
*927 _0798_
*928 _0799_
*929 _0800_
*930 _0801_
*931 _0802_
*932 _0803_
*933 _0804_
*934 _0805_
*935 _0806_
*936 _0807_
*937 _0808_
*938 _0809_
*939 _0810_
*940 _0811_
*941 _0812_
*942 _0813_
*943 _0814_
*944 _0815_
*945 _0816_
*946 _0817_
*947 _0818_
*948 _0819_
*949 _0820_
*950 _0821_
*951 _0822_
*952 _0823_
*953 _0824_
*954 _0825_
*955 _0826_
*956 _0827_
*957 _0828_
*958 _0829_
*959 _0830_
*960 _0831_
*961 _0832_
*962 _0833_
*963 _0834_
*964 _0835_
*965 _0836_
*966 _0837_
*967 _0838_
*968 _0839_
*969 _0840_
*970 _0841_
*971 _0842_
*972 _0843_
*973 _0844_
*974 _0845_
*975 _0846_
*976 _0847_
*977 _0848_
*978 _0849_
*979 _0850_
*980 _0851_
*981 _0852_
*982 _0853_
*983 _0854_
*984 _0855_
*985 _0856_
*986 _0857_
*987 _0858_
*988 _0859_
*989 _0860_
*990 _0861_
*991 _0862_
*992 _0863_
*993 _0864_
*994 _0865_
*995 _0866_
*996 _0867_
*997 _0868_
*998 _0869_
*999 _0870_
*1000 _0871_
*1001 _0872_
*1002 _0873_
*1003 _0874_
*1004 _0875_
*1005 _0876_
*1006 _0877_
*1007 _0878_
*1008 _0879_
*1009 _0880_
*1010 _0881_
*1011 _0882_
*1012 _0883_
*1013 _0884_
*1014 _0885_
*1015 _0886_
*1016 _0887_
*1017 _0888_
*1018 _0889_
*1019 _0890_
*1020 _0891_
*1021 _0892_
*1022 _0893_
*1023 _0894_
*1024 _0895_
*1025 _0896_
*1026 _0897_
*1027 _0898_
*1028 _0899_
*1029 _0900_
*1030 _0901_
*1031 _0902_
*1032 _0903_
*1033 _0904_
*1034 _0905_
*1035 _0906_
*1036 _0907_
*1037 _0908_
*1038 _0909_
*1039 _0910_
*1040 _0911_
*1041 _0912_
*1042 _0913_
*1043 _0914_
*1044 _0915_
*1045 _0916_
*1046 _0917_
*1047 _0918_
*1048 _0919_
*1049 _0920_
*1050 _0921_
*1051 _0922_
*1052 _0923_
*1053 _0924_
*1054 _0925_
*1055 _0926_
*1056 _0927_
*1057 _0928_
*1058 _0929_
*1059 _0930_
*1060 _0931_
*1061 _0932_
*1062 _0933_
*1063 _0934_
*1064 _0935_
*1065 _0936_
*1066 _0937_
*1067 _0938_
*1068 _0939_
*1069 _0940_
*1070 _0941_
*1071 _0942_
*1072 _0943_
*1073 _0944_
*1074 _0945_
*1075 _0946_
*1076 _0947_
*1077 _0948_
*1078 _0949_
*1079 _0950_
*1080 _0951_
*1081 _0952_
*1082 _0953_
*1083 _0954_
*1084 _0955_
*1085 _0956_
*1086 _0957_
*1087 _0958_
*1088 _0959_
*1089 _0960_
*1090 _0961_
*1091 _0962_
*1092 _0963_
*1093 _0964_
*1094 _0965_
*1095 _0966_
*1096 _0967_
*1097 _0968_
*1098 _0969_
*1099 _0970_
*1100 _0971_
*1101 _0972_
*1102 _0973_
*1103 _0974_
*1104 _0975_
*1105 _0976_
*1106 _0977_
*1107 _0978_
*1108 _0979_
*1109 _0980_
*1110 _0981_
*1111 _0982_
*1112 _0983_
*1113 _0984_
*1114 _0985_
*1115 _0986_
*1116 _0987_
*1117 _0988_
*1118 _0989_
*1119 _0990_
*1120 _0991_
*1121 _0992_
*1122 _0993_
*1123 _0994_
*1124 _0995_
*1125 _0996_
*1126 _0997_
*1127 _0998_
*1128 _0999_
*1129 _1000_
*1130 _1001_
*1131 _1002_
*1132 _1003_
*1133 _1004_
*1134 _1005_
*1135 _1006_
*1136 _1007_
*1137 _1008_
*1138 _1009_
*1139 _1010_
*1140 _1011_
*1141 _1012_
*1142 _1013_
*1143 _1014_
*1144 _1015_
*1145 _1016_
*1146 _1017_
*1147 _1018_
*1148 _1019_
*1149 _1020_
*1150 _1021_
*1151 _1022_
*1152 _1023_
*1153 _1024_
*1154 _1025_
*1155 _1026_
*1156 _1027_
*1157 _1028_
*1158 _1029_
*1159 _1030_
*1160 _1031_
*1161 _1032_
*1162 _1033_
*1163 _1034_
*1164 _1035_
*1165 _1036_
*1166 _1037_
*1167 _1038_
*1168 _1039_
*1169 _1040_
*1170 _1041_
*1171 _1042_
*1172 _1043_
*1173 _1044_
*1174 _1045_
*1175 _1046_
*1176 _1047_
*1177 _1048_
*1178 _1049_
*1179 _1050_
*1180 _1051_
*1181 _1052_
*1182 _1053_
*1183 _1054_
*1184 _1055_
*1185 _1056_
*1186 _1057_
*1187 _1058_
*1188 _1059_
*1189 _1060_
*1190 _1061_
*1191 _1062_
*1192 _1063_
*1193 _1064_
*1194 _1065_
*1195 _1066_
*1196 _1067_
*1197 _1068_
*1198 _1069_
*1199 _1070_
*1200 _1071_
*1201 _1072_
*1202 _1073_
*1203 _1074_
*1204 _1075_
*1205 _1076_
*1206 _1077_
*1207 _1078_
*1208 _1079_
*1209 _1080_
*1210 _1081_
*1211 _1082_
*1212 _1083_
*1213 _1084_
*1214 _1085_
*1215 _1086_
*1216 _1087_
*1217 _1088_
*1218 _1089_
*1219 _1090_
*1220 _1091_
*1221 _1092_
*1222 _1093_
*1223 _1094_
*1224 _1095_
*1225 _1096_
*1226 _1097_
*1227 _1098_
*1228 _1099_
*1229 _1100_
*1230 _1101_
*1231 _1102_
*1232 _1103_
*1233 _1104_
*1234 _1105_
*1235 _1106_
*1236 _1107_
*1237 _1108_
*1238 _1109_
*1239 _1110_
*1240 _1111_
*1241 _1112_
*1242 _1113_
*1243 _1114_
*1244 _1115_
*1245 _1116_
*1246 _1117_
*1247 _1118_
*1248 _1119_
*1249 _1120_
*1250 _1121_
*1251 _1122_
*1252 _1123_
*1253 _1124_
*1254 _1125_
*1255 _1126_
*1256 _1127_
*1257 _1128_
*1258 _1129_
*1259 _1130_
*1260 _1131_
*1261 _1132_
*1262 _1133_
*1263 _1134_
*1264 _1135_
*1265 _1136_
*1266 _1137_
*1267 _1138_
*1268 _1139_
*1269 _1140_
*1270 _1141_
*1271 _1142_
*1272 _1143_
*1273 _1144_
*1274 _1145_
*1275 _1146_
*1276 _1147_
*1277 _1148_
*1278 _1149_
*1279 _1150_
*1280 _1151_
*1281 _1152_
*1282 _1153_
*1283 _1154_
*1284 _1155_
*1285 _1156_
*1286 _1157_
*1287 _1158_
*1288 _1159_
*1289 _1160_
*1290 _1161_
*1291 _1162_
*1292 _1163_
*1293 _1164_
*1294 _1165_
*1295 _1166_
*1296 _1167_
*1297 _1168_
*1298 _1169_
*1299 _1170_
*1300 _1171_
*1301 _1172_
*1302 _1173_
*1303 _1174_
*1304 _1175_
*1305 _1176_
*1306 _1177_
*1307 _1178_
*1308 _1179_
*1309 _1180_
*1310 _1181_
*1311 _1182_
*1312 _1183_
*1313 _1184_
*1314 _1185_
*1315 _1186_
*1316 _1187_
*1317 _1188_
*1318 _1189_
*1319 _1190_
*1320 _1191_
*1321 _1192_
*1322 _1193_
*1323 _1194_
*1324 _1195_
*1325 _1196_
*1326 _1197_
*1327 _1198_
*1328 _1199_
*1329 _1200_
*1330 _1201_
*1331 _1202_
*1332 _1203_
*1333 _1204_
*1334 _1205_
*1335 _1206_
*1336 _1207_
*1337 _1208_
*1338 _1209_
*1339 _1210_
*1340 _1211_
*1341 _1212_
*1342 _1213_
*1343 _1214_
*1344 _1215_
*1345 _1216_
*1346 _1217_
*1347 _1218_
*1348 _1219_
*1349 _1220_
*1350 _1221_
*1351 _1222_
*1352 _1223_
*1353 _1224_
*1354 _1225_
*1355 _1226_
*1356 _1227_
*1357 _1228_
*1358 _1229_
*1359 _1230_
*1360 _1231_
*1361 _1232_
*1362 _1233_
*1363 _1234_
*1364 _1235_
*1365 _1236_
*1366 _1237_
*1367 _1238_
*1368 _1239_
*1369 _1240_
*1370 _1241_
*1371 _1242_
*1372 _1243_
*1373 _1244_
*1374 _1245_
*1375 _1246_
*1376 _1247_
*1377 _1248_
*1378 _1249_
*1379 _1250_
*1380 _1251_
*1381 _1252_
*1382 _1253_
*1383 _1254_
*1384 _1255_
*1385 _1256_
*1386 _1257_
*1387 _1258_
*1388 _1259_
*1389 _1260_
*1390 _1261_
*1391 _1262_
*1392 _1263_
*1393 _1264_
*1394 _1265_
*1395 _1266_
*1396 _1267_
*1397 _1268_
*1398 _1269_
*1399 _1270_
*1400 _1271_
*1401 _1272_
*1402 _1273_
*1403 _1274_
*1404 clknet_0__0514_
*1405 clknet_0__0515_
*1406 clknet_0__0516_
*1407 clknet_0__0517_
*1408 clknet_0_clk
*1409 clknet_1_0__leaf__0514_
*1410 clknet_1_0__leaf__0515_
*1411 clknet_1_0__leaf__0516_
*1412 clknet_1_0__leaf__0517_
*1413 clknet_1_1__leaf__0514_
*1414 clknet_1_1__leaf__0515_
*1415 clknet_1_1__leaf__0516_
*1416 clknet_1_1__leaf__0517_
*1417 clknet_2_0__leaf_clk
*1418 clknet_2_1__leaf_clk
*1419 clknet_2_2__leaf_clk
*1420 clknet_2_3__leaf_clk
*1421 net1
*1422 net10
*1423 net100
*1424 net101
*1425 net102
*1426 net103
*1427 net104
*1428 net105
*1429 net106
*1430 net107
*1431 net108
*1432 net109
*1433 net11
*1434 net110
*1435 net111
*1436 net112
*1437 net113
*1438 net114
*1439 net115
*1440 net116
*1441 net117
*1442 net118
*1443 net119
*1444 net12
*1445 net120
*1446 net121
*1447 net122
*1448 net123
*1449 net124
*1450 net125
*1451 net126
*1452 net127
*1453 net128
*1454 net129
*1455 net13
*1456 net130
*1457 net131
*1458 net132
*1459 net133
*1460 net134
*1461 net135
*1462 net136
*1463 net137
*1464 net138
*1465 net139
*1466 net14
*1467 net15
*1468 net16
*1469 net17
*1470 net18
*1471 net19
*1472 net2
*1473 net20
*1474 net21
*1475 net22
*1476 net23
*1477 net24
*1478 net25
*1479 net26
*1480 net27
*1481 net28
*1482 net29
*1483 net3
*1484 net30
*1485 net31
*1486 net32
*1487 net33
*1488 net34
*1489 net35
*1490 net36
*1491 net37
*1492 net38
*1493 net39
*1494 net4
*1495 net40
*1496 net41
*1497 net42
*1498 net43
*1499 net44
*1500 net45
*1501 net46
*1502 net47
*1503 net48
*1504 net49
*1505 net5
*1506 net50
*1507 net51
*1508 net52
*1509 net53
*1510 net54
*1511 net55
*1512 net56
*1513 net57
*1514 net58
*1515 net59
*1516 net6
*1517 net60
*1518 net61
*1519 net62
*1520 net63
*1521 net64
*1522 net65
*1523 net66
*1524 net67
*1525 net68
*1526 net69
*1527 net7
*1528 net70
*1529 net71
*1530 net72
*1531 net73
*1532 net74
*1533 net75
*1534 net76
*1535 net77
*1536 net78
*1537 net79
*1538 net8
*1539 net80
*1540 net81
*1541 net82
*1542 net83
*1543 net84
*1544 net85
*1545 net86
*1546 net87
*1547 net88
*1548 net89
*1549 net9
*1550 net90
*1551 net91
*1552 net92
*1553 net93
*1554 net94
*1555 net95
*1556 net96
*1557 net97
*1558 net98
*1559 net99
*1560 ANTENNA_1
*1561 ANTENNA_2
*1562 FILLER_0_0_105
*1563 FILLER_0_0_113
*1564 FILLER_0_0_125
*1565 FILLER_0_0_135
*1566 FILLER_0_0_139
*1567 FILLER_0_0_141
*1568 FILLER_0_0_149
*1569 FILLER_0_0_156
*1570 FILLER_0_0_16
*1571 FILLER_0_0_169
*1572 FILLER_0_0_177
*1573 FILLER_0_0_184
*1574 FILLER_0_0_197
*1575 FILLER_0_0_205
*1576 FILLER_0_0_217
*1577 FILLER_0_0_223
*1578 FILLER_0_0_225
*1579 FILLER_0_0_237
*1580 FILLER_0_0_249
*1581 FILLER_0_0_253
*1582 FILLER_0_0_265
*1583 FILLER_0_0_277
*1584 FILLER_0_0_287
*1585 FILLER_0_0_29
*1586 FILLER_0_0_299
*1587 FILLER_0_0_307
*1588 FILLER_0_0_309
*1589 FILLER_0_0_321
*1590 FILLER_0_0_333
*1591 FILLER_0_0_337
*1592 FILLER_0_0_349
*1593 FILLER_0_0_361
*1594 FILLER_0_0_365
*1595 FILLER_0_0_37
*1596 FILLER_0_0_377
*1597 FILLER_0_0_389
*1598 FILLER_0_0_393
*1599 FILLER_0_0_399
*1600 FILLER_0_0_49
*1601 FILLER_0_0_55
*1602 FILLER_0_0_57
*1603 FILLER_0_0_65
*1604 FILLER_0_0_77
*1605 FILLER_0_0_83
*1606 FILLER_0_0_85
*1607 FILLER_0_0_9
*1608 FILLER_0_0_97
*1609 FILLER_0_10_121
*1610 FILLER_0_10_125
*1611 FILLER_0_10_138
*1612 FILLER_0_10_141
*1613 FILLER_0_10_15
*1614 FILLER_0_10_152
*1615 FILLER_0_10_164
*1616 FILLER_0_10_176
*1617 FILLER_0_10_188
*1618 FILLER_0_10_197
*1619 FILLER_0_10_201
*1620 FILLER_0_10_206
*1621 FILLER_0_10_218
*1622 FILLER_0_10_230
*1623 FILLER_0_10_246
*1624 FILLER_0_10_253
*1625 FILLER_0_10_265
*1626 FILLER_0_10_27
*1627 FILLER_0_10_277
*1628 FILLER_0_10_288
*1629 FILLER_0_10_29
*1630 FILLER_0_10_3
*1631 FILLER_0_10_300
*1632 FILLER_0_10_307
*1633 FILLER_0_10_312
*1634 FILLER_0_10_336
*1635 FILLER_0_10_348
*1636 FILLER_0_10_35
*1637 FILLER_0_10_360
*1638 FILLER_0_10_365
*1639 FILLER_0_10_377
*1640 FILLER_0_10_389
*1641 FILLER_0_10_43
*1642 FILLER_0_10_49
*1643 FILLER_0_10_71
*1644 FILLER_0_10_76
*1645 FILLER_0_11_109
*1646 FILLER_0_11_11
*1647 FILLER_0_11_113
*1648 FILLER_0_11_127
*1649 FILLER_0_11_139
*1650 FILLER_0_11_14
*1651 FILLER_0_11_167
*1652 FILLER_0_11_216
*1653 FILLER_0_11_225
*1654 FILLER_0_11_24
*1655 FILLER_0_11_245
*1656 FILLER_0_11_266
*1657 FILLER_0_11_278
*1658 FILLER_0_11_286
*1659 FILLER_0_11_294
*1660 FILLER_0_11_299
*1661 FILLER_0_11_3
*1662 FILLER_0_11_304
*1663 FILLER_0_11_312
*1664 FILLER_0_11_318
*1665 FILLER_0_11_32
*1666 FILLER_0_11_326
*1667 FILLER_0_11_337
*1668 FILLER_0_11_352
*1669 FILLER_0_11_364
*1670 FILLER_0_11_376
*1671 FILLER_0_11_388
*1672 FILLER_0_11_393
*1673 FILLER_0_11_40
*1674 FILLER_0_11_52
*1675 FILLER_0_11_57
*1676 FILLER_0_11_69
*1677 FILLER_0_11_80
*1678 FILLER_0_11_85
*1679 FILLER_0_11_97
*1680 FILLER_0_12_100
*1681 FILLER_0_12_112
*1682 FILLER_0_12_12
*1683 FILLER_0_12_138
*1684 FILLER_0_12_141
*1685 FILLER_0_12_149
*1686 FILLER_0_12_159
*1687 FILLER_0_12_171
*1688 FILLER_0_12_175
*1689 FILLER_0_12_186
*1690 FILLER_0_12_194
*1691 FILLER_0_12_221
*1692 FILLER_0_12_233
*1693 FILLER_0_12_243
*1694 FILLER_0_12_248
*1695 FILLER_0_12_261
*1696 FILLER_0_12_27
*1697 FILLER_0_12_278
*1698 FILLER_0_12_289
*1699 FILLER_0_12_29
*1700 FILLER_0_12_293
*1701 FILLER_0_12_302
*1702 FILLER_0_12_314
*1703 FILLER_0_12_326
*1704 FILLER_0_12_340
*1705 FILLER_0_12_355
*1706 FILLER_0_12_363
*1707 FILLER_0_12_365
*1708 FILLER_0_12_377
*1709 FILLER_0_12_389
*1710 FILLER_0_12_48
*1711 FILLER_0_12_60
*1712 FILLER_0_12_72
*1713 FILLER_0_12_80
*1714 FILLER_0_12_85
*1715 FILLER_0_12_91
*1716 FILLER_0_13_113
*1717 FILLER_0_13_131
*1718 FILLER_0_13_137
*1719 FILLER_0_13_147
*1720 FILLER_0_13_159
*1721 FILLER_0_13_167
*1722 FILLER_0_13_169
*1723 FILLER_0_13_190
*1724 FILLER_0_13_198
*1725 FILLER_0_13_205
*1726 FILLER_0_13_211
*1727 FILLER_0_13_216
*1728 FILLER_0_13_222
*1729 FILLER_0_13_225
*1730 FILLER_0_13_23
*1731 FILLER_0_13_238
*1732 FILLER_0_13_250
*1733 FILLER_0_13_261
*1734 FILLER_0_13_265
*1735 FILLER_0_13_276
*1736 FILLER_0_13_289
*1737 FILLER_0_13_301
*1738 FILLER_0_13_307
*1739 FILLER_0_13_31
*1740 FILLER_0_13_314
*1741 FILLER_0_13_318
*1742 FILLER_0_13_337
*1743 FILLER_0_13_348
*1744 FILLER_0_13_360
*1745 FILLER_0_13_372
*1746 FILLER_0_13_384
*1747 FILLER_0_13_393
*1748 FILLER_0_13_45
*1749 FILLER_0_13_53
*1750 FILLER_0_13_57
*1751 FILLER_0_13_67
*1752 FILLER_0_13_75
*1753 FILLER_0_13_87
*1754 FILLER_0_13_99
*1755 FILLER_0_14_120
*1756 FILLER_0_14_132
*1757 FILLER_0_14_147
*1758 FILLER_0_14_152
*1759 FILLER_0_14_202
*1760 FILLER_0_14_225
*1761 FILLER_0_14_23
*1762 FILLER_0_14_244
*1763 FILLER_0_14_262
*1764 FILLER_0_14_27
*1765 FILLER_0_14_274
*1766 FILLER_0_14_286
*1767 FILLER_0_14_29
*1768 FILLER_0_14_3
*1769 FILLER_0_14_306
*1770 FILLER_0_14_309
*1771 FILLER_0_14_313
*1772 FILLER_0_14_325
*1773 FILLER_0_14_33
*1774 FILLER_0_14_339
*1775 FILLER_0_14_351
*1776 FILLER_0_14_372
*1777 FILLER_0_14_384
*1778 FILLER_0_14_396
*1779 FILLER_0_14_400
*1780 FILLER_0_14_42
*1781 FILLER_0_14_93
*1782 FILLER_0_15_104
*1783 FILLER_0_15_113
*1784 FILLER_0_15_119
*1785 FILLER_0_15_127
*1786 FILLER_0_15_15
*1787 FILLER_0_15_169
*1788 FILLER_0_15_182
*1789 FILLER_0_15_199
*1790 FILLER_0_15_211
*1791 FILLER_0_15_217
*1792 FILLER_0_15_222
*1793 FILLER_0_15_238
*1794 FILLER_0_15_247
*1795 FILLER_0_15_259
*1796 FILLER_0_15_271
*1797 FILLER_0_15_279
*1798 FILLER_0_15_290
*1799 FILLER_0_15_296
*1800 FILLER_0_15_3
*1801 FILLER_0_15_307
*1802 FILLER_0_15_319
*1803 FILLER_0_15_325
*1804 FILLER_0_15_333
*1805 FILLER_0_15_337
*1806 FILLER_0_15_351
*1807 FILLER_0_15_359
*1808 FILLER_0_15_368
*1809 FILLER_0_15_380
*1810 FILLER_0_15_384
*1811 FILLER_0_15_390
*1812 FILLER_0_15_393
*1813 FILLER_0_15_47
*1814 FILLER_0_15_55
*1815 FILLER_0_15_60
*1816 FILLER_0_15_72
*1817 FILLER_0_15_93
*1818 FILLER_0_16_105
*1819 FILLER_0_16_139
*1820 FILLER_0_16_144
*1821 FILLER_0_16_158
*1822 FILLER_0_16_170
*1823 FILLER_0_16_18
*1824 FILLER_0_16_194
*1825 FILLER_0_16_212
*1826 FILLER_0_16_22
*1827 FILLER_0_16_224
*1828 FILLER_0_16_236
*1829 FILLER_0_16_248
*1830 FILLER_0_16_256
*1831 FILLER_0_16_26
*1832 FILLER_0_16_270
*1833 FILLER_0_16_297
*1834 FILLER_0_16_305
*1835 FILLER_0_16_315
*1836 FILLER_0_16_327
*1837 FILLER_0_16_333
*1838 FILLER_0_16_350
*1839 FILLER_0_16_362
*1840 FILLER_0_16_365
*1841 FILLER_0_16_377
*1842 FILLER_0_16_389
*1843 FILLER_0_16_41
*1844 FILLER_0_16_53
*1845 FILLER_0_16_59
*1846 FILLER_0_16_69
*1847 FILLER_0_16_7
*1848 FILLER_0_16_81
*1849 FILLER_0_16_98
*1850 FILLER_0_17_105
*1851 FILLER_0_17_111
*1852 FILLER_0_17_113
*1853 FILLER_0_17_117
*1854 FILLER_0_17_127
*1855 FILLER_0_17_151
*1856 FILLER_0_17_155
*1857 FILLER_0_17_159
*1858 FILLER_0_17_167
*1859 FILLER_0_17_169
*1860 FILLER_0_17_181
*1861 FILLER_0_17_185
*1862 FILLER_0_17_205
*1863 FILLER_0_17_217
*1864 FILLER_0_17_222
*1865 FILLER_0_17_225
*1866 FILLER_0_17_23
*1867 FILLER_0_17_233
*1868 FILLER_0_17_239
*1869 FILLER_0_17_247
*1870 FILLER_0_17_256
*1871 FILLER_0_17_269
*1872 FILLER_0_17_277
*1873 FILLER_0_17_286
*1874 FILLER_0_17_298
*1875 FILLER_0_17_308
*1876 FILLER_0_17_329
*1877 FILLER_0_17_335
*1878 FILLER_0_17_337
*1879 FILLER_0_17_35
*1880 FILLER_0_17_358
*1881 FILLER_0_17_370
*1882 FILLER_0_17_382
*1883 FILLER_0_17_390
*1884 FILLER_0_17_393
*1885 FILLER_0_17_47
*1886 FILLER_0_17_93
*1887 FILLER_0_18_10
*1888 FILLER_0_18_122
*1889 FILLER_0_18_131
*1890 FILLER_0_18_139
*1891 FILLER_0_18_141
*1892 FILLER_0_18_149
*1893 FILLER_0_18_159
*1894 FILLER_0_18_193
*1895 FILLER_0_18_207
*1896 FILLER_0_18_21
*1897 FILLER_0_18_215
*1898 FILLER_0_18_228
*1899 FILLER_0_18_245
*1900 FILLER_0_18_251
*1901 FILLER_0_18_264
*1902 FILLER_0_18_27
*1903 FILLER_0_18_272
*1904 FILLER_0_18_282
*1905 FILLER_0_18_29
*1906 FILLER_0_18_294
*1907 FILLER_0_18_298
*1908 FILLER_0_18_3
*1909 FILLER_0_18_317
*1910 FILLER_0_18_323
*1911 FILLER_0_18_335
*1912 FILLER_0_18_347
*1913 FILLER_0_18_359
*1914 FILLER_0_18_363
*1915 FILLER_0_18_365
*1916 FILLER_0_18_377
*1917 FILLER_0_18_389
*1918 FILLER_0_18_41
*1919 FILLER_0_18_67
*1920 FILLER_0_18_75
*1921 FILLER_0_18_98
*1922 FILLER_0_19_113
*1923 FILLER_0_19_125
*1924 FILLER_0_19_136
*1925 FILLER_0_19_148
*1926 FILLER_0_19_160
*1927 FILLER_0_19_169
*1928 FILLER_0_19_203
*1929 FILLER_0_19_207
*1930 FILLER_0_19_22
*1931 FILLER_0_19_220
*1932 FILLER_0_19_249
*1933 FILLER_0_19_261
*1934 FILLER_0_19_273
*1935 FILLER_0_19_277
*1936 FILLER_0_19_289
*1937 FILLER_0_19_297
*1938 FILLER_0_19_3
*1939 FILLER_0_19_309
*1940 FILLER_0_19_317
*1941 FILLER_0_19_327
*1942 FILLER_0_19_342
*1943 FILLER_0_19_358
*1944 FILLER_0_19_370
*1945 FILLER_0_19_382
*1946 FILLER_0_19_39
*1947 FILLER_0_19_390
*1948 FILLER_0_19_393
*1949 FILLER_0_19_47
*1950 FILLER_0_19_53
*1951 FILLER_0_19_66
*1952 FILLER_0_19_78
*1953 FILLER_0_19_9
*1954 FILLER_0_19_92
*1955 FILLER_0_1_105
*1956 FILLER_0_1_111
*1957 FILLER_0_1_113
*1958 FILLER_0_1_117
*1959 FILLER_0_1_132
*1960 FILLER_0_1_144
*1961 FILLER_0_1_15
*1962 FILLER_0_1_156
*1963 FILLER_0_1_167
*1964 FILLER_0_1_169
*1965 FILLER_0_1_180
*1966 FILLER_0_1_192
*1967 FILLER_0_1_204
*1968 FILLER_0_1_216
*1969 FILLER_0_1_225
*1970 FILLER_0_1_237
*1971 FILLER_0_1_249
*1972 FILLER_0_1_256
*1973 FILLER_0_1_268
*1974 FILLER_0_1_27