*SPEF "ieee 1481-1999"
*DESIGN "reducedMacroMain"
*DATE "11:11:11 Fri 11 11, 1111"
*VENDOR "OpenRCX"
*PROGRAM "Parallel Extraction"
*VERSION "1.0"
*DESIGN_FLOW "NAME_SCOPE LOCAL" "PIN_CAP NONE"
*DIVIDER /
*DELIMITER :
*BUS_DELIMITER []
*T_UNIT 1 NS
*C_UNIT 1 PF
*R_UNIT 1 OHM
*L_UNIT 1 HENRY

*NAME_MAP
*1 clk
*2 in[0]
*3 in[1]
*4 in[2]
*5 in[3]
*6 in[4]
*7 in[5]
*8 in[6]
*9 in[7]
*10 in[8]
*11 in[9]
*12 nrst
*13 net6
*14 net2
*15 net3
*16 net4
*17 net5
*18 net13
*19 net14
*20 net7
*21 net8
*22 net9
*23 net10
*24 net11
*25 net12
*26 net1
*27 FILLER_0_0_109
*28 FILLER_0_0_113
*29 FILLER_0_0_118
*30 FILLER_0_0_130
*31 FILLER_0_0_138
*32 FILLER_0_0_14
*33 FILLER_0_0_141
*34 FILLER_0_0_149
*35 FILLER_0_0_153
*36 FILLER_0_0_165
*37 FILLER_0_0_169
*38 FILLER_0_0_181
*39 FILLER_0_0_20
*40 FILLER_0_0_29
*41 FILLER_0_0_41
*42 FILLER_0_0_49
*43 FILLER_0_0_55
*44 FILLER_0_0_57
*45 FILLER_0_0_6
*46 FILLER_0_0_69
*47 FILLER_0_0_81
*48 FILLER_0_0_85
*49 FILLER_0_0_97
*50 FILLER_0_10_109
*51 FILLER_0_10_121
*52 FILLER_0_10_133
*53 FILLER_0_10_139
*54 FILLER_0_10_141
*55 FILLER_0_10_15
*56 FILLER_0_10_153
*57 FILLER_0_10_165
*58 FILLER_0_10_177
*59 FILLER_0_10_185
*60 FILLER_0_10_27
*61 FILLER_0_10_29
*62 FILLER_0_10_3
*63 FILLER_0_10_41
*64 FILLER_0_10_53
*65 FILLER_0_10_65
*66 FILLER_0_10_77
*67 FILLER_0_10_83
*68 FILLER_0_10_85
*69 FILLER_0_10_97
*70 FILLER_0_11_105
*71 FILLER_0_11_111
*72 FILLER_0_11_113
*73 FILLER_0_11_125
*74 FILLER_0_11_137
*75 FILLER_0_11_149
*76 FILLER_0_11_15
*77 FILLER_0_11_161
*78 FILLER_0_11_167
*79 FILLER_0_11_169
*80 FILLER_0_11_181
*81 FILLER_0_11_189
*82 FILLER_0_11_27
*83 FILLER_0_11_3
*84 FILLER_0_11_39
*85 FILLER_0_11_51
*86 FILLER_0_11_55
*87 FILLER_0_11_57
*88 FILLER_0_11_69
*89 FILLER_0_11_81
*90 FILLER_0_11_93
*91 FILLER_0_12_109
*92 FILLER_0_12_121
*93 FILLER_0_12_133
*94 FILLER_0_12_139
*95 FILLER_0_12_141
*96 FILLER_0_12_15
*97 FILLER_0_12_153
*98 FILLER_0_12_165
*99 FILLER_0_12_177
*100 FILLER_0_12_189
*101 FILLER_0_12_27
*102 FILLER_0_12_29
*103 FILLER_0_12_3
*104 FILLER_0_12_41
*105 FILLER_0_12_53
*106 FILLER_0_12_65
*107 FILLER_0_12_77
*108 FILLER_0_12_83
*109 FILLER_0_12_85
*110 FILLER_0_12_97
*111 FILLER_0_13_105
*112 FILLER_0_13_111
*113 FILLER_0_13_113
*114 FILLER_0_13_125
*115 FILLER_0_13_137
*116 FILLER_0_13_149
*117 FILLER_0_13_15
*118 FILLER_0_13_161
*119 FILLER_0_13_167
*120 FILLER_0_13_169
*121 FILLER_0_13_181
*122 FILLER_0_13_189
*123 FILLER_0_13_27
*124 FILLER_0_13_3
*125 FILLER_0_13_39
*126 FILLER_0_13_51
*127 FILLER_0_13_55
*128 FILLER_0_13_57
*129 FILLER_0_13_69
*130 FILLER_0_13_81
*131 FILLER_0_13_93
*132 FILLER_0_14_109
*133 FILLER_0_14_121
*134 FILLER_0_14_133
*135 FILLER_0_14_139
*136 FILLER_0_14_141
*137 FILLER_0_14_15
*138 FILLER_0_14_153
*139 FILLER_0_14_165
*140 FILLER_0_14_177
*141 FILLER_0_14_189
*142 FILLER_0_14_27
*143 FILLER_0_14_29
*144 FILLER_0_14_3
*145 FILLER_0_14_41
*146 FILLER_0_14_53
*147 FILLER_0_14_65
*148 FILLER_0_14_77
*149 FILLER_0_14_83
*150 FILLER_0_14_85
*151 FILLER_0_14_97
*152 FILLER_0_15_105
*153 FILLER_0_15_111
*154 FILLER_0_15_113
*155 FILLER_0_15_125
*156 FILLER_0_15_137
*157 FILLER_0_15_149
*158 FILLER_0_15_15
*159 FILLER_0_15_161
*160 FILLER_0_15_167
*161 FILLER_0_15_169
*162 FILLER_0_15_181
*163 FILLER_0_15_189
*164 FILLER_0_15_27
*165 FILLER_0_15_3
*166 FILLER_0_15_39
*167 FILLER_0_15_51
*168 FILLER_0_15_55
*169 FILLER_0_15_57
*170 FILLER_0_15_69
*171 FILLER_0_15_81
*172 FILLER_0_15_93
*173 FILLER_0_16_109
*174 FILLER_0_16_121
*175 FILLER_0_16_133
*176 FILLER_0_16_139
*177 FILLER_0_16_141
*178 FILLER_0_16_15
*179 FILLER_0_16_153
*180 FILLER_0_16_165
*181 FILLER_0_16_177
*182 FILLER_0_16_189
*183 FILLER_0_16_27
*184 FILLER_0_16_29
*185 FILLER_0_16_3
*186 FILLER_0_16_41
*187 FILLER_0_16_53
*188 FILLER_0_16_65
*189 FILLER_0_16_77
*190 FILLER_0_16_83
*191 FILLER_0_16_85
*192 FILLER_0_16_97
*193 FILLER_0_17_105
*194 FILLER_0_17_111
*195 FILLER_0_17_113
*196 FILLER_0_17_125
*197 FILLER_0_17_137
*198 FILLER_0_17_149
*199 FILLER_0_17_15
*200 FILLER_0_17_161
*201 FILLER_0_17_167
*202 FILLER_0_17_169
*203 FILLER_0_17_181
*204 FILLER_0_17_189
*205 FILLER_0_17_27
*206 FILLER_0_17_3
*207 FILLER_0_17_39
*208 FILLER_0_17_51
*209 FILLER_0_17_55
*210 FILLER_0_17_57
*211 FILLER_0_17_69
*212 FILLER_0_17_81
*213 FILLER_0_17_93
*214 FILLER_0_18_109
*215 FILLER_0_18_121
*216 FILLER_0_18_133
*217 FILLER_0_18_139
*218 FILLER_0_18_141
*219 FILLER_0_18_15
*220 FILLER_0_18_153
*221 FILLER_0_18_165
*222 FILLER_0_18_177
*223 FILLER_0_18_189
*224 FILLER_0_18_27
*225 FILLER_0_18_29
*226 FILLER_0_18_3
*227 FILLER_0_18_41
*228 FILLER_0_18_53
*229 FILLER_0_18_65
*230 FILLER_0_18_77
*231 FILLER_0_18_83
*232 FILLER_0_18_85
*233 FILLER_0_18_97
*234 FILLER_0_19_105
*235 FILLER_0_19_111
*236 FILLER_0_19_113
*237 FILLER_0_19_125
*238 FILLER_0_19_137
*239 FILLER_0_19_149
*240 FILLER_0_19_161
*241 FILLER_0_19_167
*242 FILLER_0_19_169
*243 FILLER_0_19_18
*244 FILLER_0_19_181
*245 FILLER_0_19_189
*246 FILLER_0_19_30
*247 FILLER_0_19_42
*248 FILLER_0_19_54
*249 FILLER_0_19_57
*250 FILLER_0_19_6
*251 FILLER_0_19_69
*252 FILLER_0_19_81
*253 FILLER_0_19_93
*254 FILLER_0_1_105
*255 FILLER_0_1_111
*256 FILLER_0_1_113
*257 FILLER_0_1_125
*258 FILLER_0_1_137
*259 FILLER_0_1_149
*260 FILLER_0_1_15
*261 FILLER_0_1_161
*262 FILLER_0_1_167
*263 FILLER_0_1_169
*264 FILLER_0_1_181
*265 FILLER_0_1_189
*266 FILLER_0_1_27
*267 FILLER_0_1_3
*268 FILLER_0_1_39
*269 FILLER_0_1_51
*270 FILLER_0_1_55
*271 FILLER_0_1_57
*272 FILLER_0_1_69
*273 FILLER_0_1_81
*274 FILLER_0_1_93
*275 FILLER_0_20_109
*276 FILLER_0_20_121
*277 FILLER_0_20_133
*278 FILLER_0_20_139
*279 FILLER_0_20_141
*280 FILLER_0_20_15
*281 FILLER_0_20_153
*282 FILLER_0_20_165
*283 FILLER_0_20_177
*284 FILLER_0_20_189
*285 FILLER_0_20_27
*286 FILLER_0_20_29
*287 FILLER_0_20_3
*288 FILLER_0_20_41
*289 FILLER_0_20_53
*290 FILLER_0_20_65
*291 FILLER_0_20_77
*292 FILLER_0_20_83
*293 FILLER_0_20_85
*294 FILLER_0_20_97
*295 FILLER_0_21_105
*296 FILLER_0_21_111
*297 FILLER_0_21_113
*298 FILLER_0_21_125
*299 FILLER_0_21_137
*300 FILLER_0_21_149
*301 FILLER_0_21_15
*302 FILLER_0_21_161
*303 FILLER_0_21_167
*304 FILLER_0_21_169
*305 FILLER_0_21_181
*306 FILLER_0_21_27
*307 FILLER_0_21_3
*308 FILLER_0_21_39
*309 FILLER_0_21_51
*310 FILLER_0_21_55
*311 FILLER_0_21_57
*312 FILLER_0_21_69
*313 FILLER_0_21_81
*314 FILLER_0_21_93
*315 FILLER_0_22_109
*316 FILLER_0_22_121
*317 FILLER_0_22_133
*318 FILLER_0_22_139
*319 FILLER_0_22_141
*320 FILLER_0_22_15
*321 FILLER_0_22_153
*322 FILLER_0_22_165
*323 FILLER_0_22_177
*324 FILLER_0_22_189
*325 FILLER_0_22_27
*326 FILLER_0_22_29
*327 FILLER_0_22_3
*328 FILLER_0_22_41
*329 FILLER_0_22_53
*330 FILLER_0_22_65
*331 FILLER_0_22_77
*332 FILLER_0_22_83
*333 FILLER_0_22_85
*334 FILLER_0_22_97
*335 FILLER_0_23_105
*336 FILLER_0_23_111
*337 FILLER_0_23_113
*338 FILLER_0_23_125
*339 FILLER_0_23_137
*340 FILLER_0_23_149
*341 FILLER_0_23_15
*342 FILLER_0_23_161
*343 FILLER_0_23_167
*344 FILLER_0_23_169
*345 FILLER_0_23_181
*346 FILLER_0_23_189
*347 FILLER_0_23_27
*348 FILLER_0_23_3
*349 FILLER_0_23_39
*350 FILLER_0_23_51
*351 FILLER_0_23_55
*352 FILLER_0_23_57
*353 FILLER_0_23_69
*354 FILLER_0_23_81
*355 FILLER_0_23_93
*356 FILLER_0_24_109
*357 FILLER_0_24_121
*358 FILLER_0_24_133
*359 FILLER_0_24_139
*360 FILLER_0_24_141
*361 FILLER_0_24_15
*362 FILLER_0_24_153
*363 FILLER_0_24_165
*364 FILLER_0_24_177
*365 FILLER_0_24_189
*366 FILLER_0_24_27
*367 FILLER_0_24_29
*368 FILLER_0_24_3
*369 FILLER_0_24_41
*370 FILLER_0_24_53
*371 FILLER_0_24_65
*372 FILLER_0_24_77
*373 FILLER_0_24_83
*374 FILLER_0_24_85
*375 FILLER_0_24_97
*376 FILLER_0_25_105
*377 FILLER_0_25_111
*378 FILLER_0_25_113
*379 FILLER_0_25_125
*380 FILLER_0_25_137
*381 FILLER_0_25_149
*382 FILLER_0_25_161
*383 FILLER_0_25_167
*384 FILLER_0_25_169
*385 FILLER_0_25_18
*386 FILLER_0_25_181
*387 FILLER_0_25_189
*388 FILLER_0_25_30
*389 FILLER_0_25_42
*390 FILLER_0_25_54
*391 FILLER_0_25_57
*392 FILLER_0_25_6
*393 FILLER_0_25_69
*394 FILLER_0_25_81
*395 FILLER_0_25_93
*396 FILLER_0_26_109
*397 FILLER_0_26_121
*398 FILLER_0_26_133
*399 FILLER_0_26_139
*400 FILLER_0_26_141
*401 FILLER_0_26_15
*402 FILLER_0_26_153
*403 FILLER_0_26_165
*404 FILLER_0_26_177
*405 FILLER_0_26_189
*406 FILLER_0_26_27
*407 FILLER_0_26_29
*408 FILLER_0_26_3
*409 FILLER_0_26_41
*410 FILLER_0_26_53
*411 FILLER_0_26_65
*412 FILLER_0_26_77
*413 FILLER_0_26_83
*414 FILLER_0_26_85
*415 FILLER_0_26_97
*416 FILLER_0_27_104
*417 FILLER_0_27_113
*418 FILLER_0_27_125
*419 FILLER_0_27_137
*420 FILLER_0_27_141
*421 FILLER_0_27_153
*422 FILLER_0_27_165
*423 FILLER_0_27_169
*424 FILLER_0_27_18
*425 FILLER_0_27_181
*426 FILLER_0_27_189
*427 FILLER_0_27_26
*428 FILLER_0_27_29
*429 FILLER_0_27_41
*430 FILLER_0_27_53
*431 FILLER_0_27_57
*432 FILLER_0_27_6
*433 FILLER_0_27_69
*434 FILLER_0_27_76
*435 FILLER_0_27_85
*436 FILLER_0_27_97
*437 FILLER_0_2_109
*438 FILLER_0_2_121
*439 FILLER_0_2_133
*440 FILLER_0_2_139
*441 FILLER_0_2_141
*442 FILLER_0_2_15
*443 FILLER_0_2_153
*444 FILLER_0_2_165
*445 FILLER_0_2_177
*446 FILLER_0_2_189
*447 FILLER_0_2_27
*448 FILLER_0_2_29
*449 FILLER_0_2_3
*450 FILLER_0_2_41
*451 FILLER_0_2_53
*452 FILLER_0_2_65
*453 FILLER_0_2_77
*454 FILLER_0_2_83
*455 FILLER_0_2_85
*456 FILLER_0_2_97
*457 FILLER_0_3_105
*458 FILLER_0_3_111
*459 FILLER_0_3_113
*460 FILLER_0_3_125
*461 FILLER_0_3_137
*462 FILLER_0_3_149
*463 FILLER_0_3_15
*464 FILLER_0_3_161
*465 FILLER_0_3_167
*466 FILLER_0_3_169
*467 FILLER_0_3_181
*468 FILLER_0_3_189
*469 FILLER_0_3_27
*470 FILLER_0_3_3
*471 FILLER_0_3_39
*472 FILLER_0_3_51
*473 FILLER_0_3_55
*474 FILLER_0_3_57
*475 FILLER_0_3_69
*476 FILLER_0_3_81
*477 FILLER_0_3_93
*478 FILLER_0_4_109
*479 FILLER_0_4_121
*480 FILLER_0_4_133
*481 FILLER_0_4_139
*482 FILLER_0_4_141
*483 FILLER_0_4_15
*484 FILLER_0_4_153
*485 FILLER_0_4_165
*486 FILLER_0_4_177
*487 FILLER_0_4_189
*488 FILLER_0_4_27
*489 FILLER_0_4_29
*490 FILLER_0_4_3
*491 FILLER_0_4_41
*492 FILLER_0_4_53
*493 FILLER_0_4_65
*494 FILLER_0_4_77
*495 FILLER_0_4_83
*496 FILLER_0_4_85
*497 FILLER_0_4_97
*498 FILLER_0_5_105
*499 FILLER_0_5_111
*500 FILLER_0_5_113
*501 FILLER_0_5_125
*502 FILLER_0_5_137
*503 FILLER_0_5_149
*504 FILLER_0_5_15
*505 FILLER_0_5_161
*506 FILLER_0_5_167
*507 FILLER_0_5_169
*508 FILLER_0_5_181
*509 FILLER_0_5_189
*510 FILLER_0_5_27
*511 FILLER_0_5_3
*512 FILLER_0_5_39
*513 FILLER_0_5_51
*514 FILLER_0_5_55
*515 FILLER_0_5_57
*516 FILLER_0_5_69
*517 FILLER_0_5_81
*518 FILLER_0_5_93
*519 FILLER_0_6_109
*520 FILLER_0_6_121
*521 FILLER_0_6_133
*522 FILLER_0_6_139
*523 FILLER_0_6_141
*524 FILLER_0_6_15
*525 FILLER_0_6_153
*526 FILLER_0_6_165
*527 FILLER_0_6_177
*528 FILLER_0_6_189
*529 FILLER_0_6_27
*530 FILLER_0_6_29
*531 FILLER_0_6_3
*532 FILLER_0_6_41
*533 FILLER_0_6_53
*534 FILLER_0_6_65
*535 FILLER_0_6_77
*536 FILLER_0_6_83
*537 FILLER_0_6_85
*538 FILLER_0_6_97
*539 FILLER_0_7_105
*540 FILLER_0_7_111
*541 FILLER_0_7_113
*542 FILLER_0_7_125
*543 FILLER_0_7_137
*544 FILLER_0_7_149
*545 FILLER_0_7_161
*546 FILLER_0_7_167
*547 FILLER_0_7_169
*548 FILLER_0_7_18
*549 FILLER_0_7_181
*550 FILLER_0_7_189
*551 FILLER_0_7_30
*552 FILLER_0_7_42
*553 FILLER_0_7_54
*554 FILLER_0_7_57
*555 FILLER_0_7_6
*556 FILLER_0_7_69
*557 FILLER_0_7_81
*558 FILLER_0_7_93
*559 FILLER_0_8_109
*560 FILLER_0_8_121
*561 FILLER_0_8_133
*562 FILLER_0_8_139
*563 FILLER_0_8_141
*564 FILLER_0_8_15
*565 FILLER_0_8_153
*566 FILLER_0_8_165
*567 FILLER_0_8_177
*568 FILLER_0_8_189
*569 FILLER_0_8_27
*570 FILLER_0_8_29
*571 FILLER_0_8_3
*572 FILLER_0_8_41
*573 FILLER_0_8_53
*574 FILLER_0_8_65
*575 FILLER_0_8_77
*576 FILLER_0_8_83
*577 FILLER_0_8_85
*578 FILLER_0_8_97
*579 FILLER_0_9_105
*580 FILLER_0_9_111
*581 FILLER_0_9_113
*582 FILLER_0_9_125
*583 FILLER_0_9_137
*584 FILLER_0_9_149
*585 FILLER_0_9_15
*586 FILLER_0_9_161
*587 FILLER_0_9_167
*588 FILLER_0_9_169
*589 FILLER_0_9_181
*590 FILLER_0_9_189
*591 FILLER_0_9_27
*592 FILLER_0_9_3
*593 FILLER_0_9_39
*594 FILLER_0_9_51
*595 FILLER_0_9_55
*596 FILLER_0_9_57
*597 FILLER_0_9_69
*598 FILLER_0_9_81
*599 FILLER_0_9_93
*600 PHY_0
*601 PHY_1
*602 PHY_10
*603 PHY_11
*604 PHY_12
*605 PHY_13
*606 PHY_14
*607 PHY_15
*608 PHY_16
*609 PHY_17
*610 PHY_18
*611 PHY_19
*612 PHY_2
*613 PHY_20
*614 PHY_21
*615 PHY_22
*616 PHY_23
*617 PHY_24
*618 PHY_25
*619 PHY_26
*620 PHY_27
*621 PHY_28
*622 PHY_29
*623 PHY_3
*624 PHY_30
*625 PHY_31
*626 PHY_32
*627 PHY_33
*628 PHY_34
*629 PHY_35
*630 PHY_36
*631 PHY_37
*632 PHY_38
*633 PHY_39
*634 PHY_4
*635 PHY_40
*636 PHY_41
*637 PHY_42
*638 PHY_43
*639 PHY_44
*640 PHY_45
*641 PHY_46
*642 PHY_47
*643 PHY_48
*644 PHY_49
*645 PHY_5
*646 PHY_50
*647 PHY_51
*648 PHY_52
*649 PHY_53
*650 PHY_54
*651 PHY_55
*652 PHY_6
*653 PHY_7
*654 PHY_8
*655 PHY_9
*656 TAP_100
*657 TAP_101
*658 TAP_102
*659 TAP_103
*660 TAP_104
*661 TAP_105
*662 TAP_106
*663 TAP_107
*664 TAP_108
*665 TAP_109
*666 TAP_110
*667 TAP_111
*668 TAP_112
*669 TAP_113
*670 TAP_114
*671 TAP_115
*672 TAP_116
*673 TAP_117
*674 TAP_118
*675 TAP_119
*676 TAP_120
*677 TAP_121
*678 TAP_122
*679 TAP_123
*680 TAP_124
*681 TAP_125
*682 TAP_126
*683 TAP_127
*684 TAP_128
*685 TAP_129
*686 TAP_130
*687 TAP_131
*688 TAP_132
*689 TAP_133
*690 TAP_134
*691 TAP_135
*692 TAP_136
*693 TAP_137
*694 TAP_138
*695 TAP_139
*696 TAP_140
*697 TAP_141
*698 TAP_142
*699 TAP_143
*700 TAP_144
*701 TAP_145
*702 TAP_56
*703 TAP_57
*704 TAP_58
*705 TAP_59
*706 TAP_60
*707 TAP_61
*708 TAP_62
*709 TAP_63
*710 TAP_64
*711 TAP_65
*712 TAP_66
*713 TAP_67
*714 TAP_68
*715 TAP_69
*716 TAP_70
*717 TAP_71
*718 TAP_72
*719 TAP_73
*720 TAP_74
*721 TAP_75
*722 TAP_76
*723 TAP_77
*724 TAP_78
*725 TAP_79
*726 TAP_80
*727 TAP_81
*728 TAP_82
*729 TAP_83
*730 TAP_84
*731 TAP_85
*732 TAP_86
*733 TAP_87
*734 TAP_88
*735 TAP_89
*736 TAP_90
*737 TAP_91
*738 TAP_92
*739 TAP_93
*740 TAP_94
*741 TAP_95
*742 TAP_96
*743 TAP_97
*744 TAP_98
*745 TAP_99
*746 reducedMacroMain_1
*747 reducedMacroMain_10
*748 reducedMacroMain_11
*749 reducedMacroMain_12
*750 reducedMacroMain_13
*751 reducedMacroMain_14
*752 reducedMacroMain_2
*753 reducedMacroMain_3
*754 reducedMacroMain_4
*755 reducedMacroMain_5
*756 reducedMacroMain_6
*757 reducedMacroMain_7
*758 reducedMacroMain_8
*759 reducedMacroMain_9

*PORTS
clk I
in[0] I
in[1] I
in[2] I
in[3] I
in[4] I
in[5] I
in[6] I
in[7] I
in[8] I
in[9] I
nrst I
out[0] O
out[10] O
out[11] O
out[12] O
out[13] O
out[1] O
out[2] O
out[3] O
out[4] O
out[5] O
out[6] O
out[7] O
out[8] O
out[9] O

*D_NET *13 0.000813598
*CONN
*P out[0] O
*I *756:LO O *D sky130_fd_sc_hd__conb_1
*CAP
1 out[0] 0.000406799
2 *756:LO 0.000406799
*RES
1 *756:LO out[0] 21.9607 
*END

*D_NET *14 0.00143417
*CONN
*P out[10] O
*I *752:LO O *D sky130_fd_sc_hd__conb_1
*CAP
1 out[10] 0.000717087
2 *752:LO 0.000717087
*RES
1 *752:LO out[10] 27.5857 
*END

*D_NET *15 0.000813598
*CONN
*P out[11] O
*I *753:LO O *D sky130_fd_sc_hd__conb_1
*CAP
1 out[11] 0.000406799
2 *753:LO 0.000406799
*RES
1 *753:LO out[11] 21.9607 
*END

*D_NET *16 0.00103114
*CONN
*P out[12] O
*I *754:LO O *D sky130_fd_sc_hd__conb_1
*CAP
1 out[12] 0.000515568
2 *754:LO 0.000515568
*RES
1 *754:LO out[12] 23.6571 
*END

*D_NET *17 0.00119737
*CONN
*P out[13] O
*I *755:LO O *D sky130_fd_sc_hd__conb_1
*CAP
1 out[13] 0.000598685
2 *755:LO 0.000598685
*RES
1 *755:LO out[13] 25.4806 
*END

*D_NET *18 0.000754184
*CONN
*P out[1] O
*I *750:HI O *D sky130_fd_sc_hd__conb_1
*CAP
1 out[1] 0.000377092
2 *750:HI 0.000377092
*RES
1 *750:HI out[1] 21.3536 
*END

*D_NET *19 0.000469287
*CONN
*P out[2] O
*I *751:HI O *D sky130_fd_sc_hd__conb_1
*CAP
1 out[2] 0.000234643
2 *751:HI 0.000234643
*RES
1 *751:HI out[2] 19.9411 
*END

*D_NET *20 0.000684851
*CONN
*P out[3] O
*I *757:LO O *D sky130_fd_sc_hd__conb_1
*CAP
1 out[3] 0.000342425
2 *757:LO 0.000342425
*RES
1 *757:LO out[3] 18.1949 
*END

*D_NET *21 0.000609183
*CONN
*P out[4] O
*I *758:LO O *D sky130_fd_sc_hd__conb_1
*CAP
1 out[4] 0.000304592
2 *758:LO 0.000304592
*RES
1 *758:LO out[4] 20.5482 
*END

*D_NET *22 0.00101576
*CONN
*P out[5] O
*I *759:LO O *D sky130_fd_sc_hd__conb_1
*CAP
1 out[5] 0.000507882
2 *759:LO 0.000507882
*RES
1 *759:LO out[5] 23.6571 
*END

*D_NET *23 0.000813598
*CONN
*P out[6] O
*I *747:LO O *D sky130_fd_sc_hd__conb_1
*CAP
1 out[6] 0.000406799
2 *747:LO 0.000406799
*RES
1 *747:LO out[6] 21.9607 
*END

*D_NET *24 0.000560308
*CONN
*P out[7] O
*I *748:LO O *D sky130_fd_sc_hd__conb_1
*CAP
1 out[7] 0.000280154
2 *748:LO 0.000280154
*RES
1 *748:LO out[7] 19.3371 
*END

*D_NET *25 0.00101576
*CONN
*P out[8] O
*I *749:LO O *D sky130_fd_sc_hd__conb_1
*CAP
1 out[8] 0.000507882
2 *749:LO 0.000507882
*RES
1 *749:LO out[8] 23.6571 
*END

*D_NET *26 0.000670503
*CONN
*P out[9] O
*I *746:LO O *D sky130_fd_sc_hd__conb_1
*CAP
1 out[9] 0.000335251
2 *746:LO 0.000335251
*RES
1 *746:LO out[9] 21.9047 
*END
