*SPEF "ieee 1481-1999"
*DESIGN "silly_synthesizer"
*DATE "11:11:11 Fri 11 11, 1111"
*VENDOR "OpenRCX"
*PROGRAM "Parallel Extraction"
*VERSION "1.0"
*DESIGN_FLOW "NAME_SCOPE LOCAL" "PIN_CAP NONE"
*DIVIDER /
*DELIMITER :
*BUS_DELIMITER []
*T_UNIT 1 NS
*C_UNIT 1 PF
*R_UNIT 1 OHM
*L_UNIT 1 HENRY

*NAME_MAP
*1 clk
*2 cs
*3 gpio[0]
*4 gpio[10]
*5 gpio[11]
*6 gpio[12]
*7 gpio[13]
*8 gpio[14]
*9 gpio[15]
*10 gpio[16]
*11 gpio[1]
*12 gpio[2]
*13 gpio[3]
*14 gpio[4]
*15 gpio[5]
*16 gpio[6]
*17 gpio[7]
*18 gpio[8]
*19 gpio[9]
*20 nrst
*21 pwm
*24 _0000_
*25 _0001_
*26 _0002_
*27 _0003_
*28 _0004_
*29 _0005_
*30 _0006_
*31 _0007_
*32 _0008_
*33 _0009_
*34 _0010_
*35 _0011_
*36 _0012_
*37 _0013_
*38 _0014_
*39 _0015_
*40 _0016_
*41 _0017_
*42 _0018_
*43 _0019_
*44 _0020_
*45 _0021_
*46 _0022_
*47 _0023_
*48 _0024_
*49 _0025_
*50 _0026_
*51 _0027_
*52 _0028_
*53 _0029_
*54 _0030_
*55 _0031_
*56 _0032_
*57 _0033_
*58 _0034_
*59 _0035_
*60 _0036_
*61 _0037_
*62 _0038_
*63 _0039_
*64 _0040_
*65 _0041_
*66 _0042_
*67 _0043_
*68 _0044_
*69 _0045_
*70 _0046_
*71 _0047_
*72 _0048_
*73 _0049_
*74 _0050_
*75 _0051_
*76 _0052_
*77 _0053_
*78 _0054_
*79 _0055_
*80 _0056_
*81 _0057_
*82 _0058_
*83 _0059_
*84 _0060_
*85 _0061_
*86 _0062_
*87 _0063_
*88 _0064_
*89 _0065_
*90 _0066_
*91 _0067_
*92 _0068_
*93 _0069_
*94 _0070_
*95 _0071_
*96 _0072_
*97 _0073_
*98 _0074_
*99 _0075_
*100 _0076_
*101 _0077_
*102 _0078_
*103 _0079_
*104 _0080_
*105 _0081_
*106 _0082_
*107 _0083_
*108 _0084_
*109 _0085_
*110 _0086_
*111 _0087_
*112 _0088_
*113 _0089_
*114 _0090_
*115 _0091_
*116 _0092_
*117 _0093_
*118 _0094_
*119 _0095_
*120 _0096_
*121 _0097_
*122 _0098_
*123 _0099_
*124 _0100_
*125 _0101_
*126 _0102_
*127 _0103_
*128 _0104_
*129 _0105_
*130 _0106_
*131 _0107_
*132 _0108_
*133 _0109_
*134 _0110_
*135 _0111_
*136 _0112_
*137 _0113_
*138 _0114_
*139 _0115_
*140 _0116_
*141 _0117_
*142 _0118_
*143 _0119_
*144 _0120_
*145 _0121_
*146 _0122_
*147 _0123_
*148 _0124_
*149 _0125_
*150 _0126_
*151 _0127_
*152 _0128_
*153 _0129_
*154 _0130_
*155 _0131_
*156 _0132_
*157 _0133_
*158 _0134_
*159 _0135_
*160 _0136_
*161 _0137_
*162 _0138_
*163 _0139_
*164 _0140_
*165 _0141_
*166 _0142_
*167 _0143_
*168 _0144_
*169 _0145_
*170 _0146_
*171 _0147_
*172 _0148_
*173 _0149_
*174 _0150_
*175 _0151_
*176 _0152_
*177 _0153_
*178 _0154_
*179 _0155_
*180 _0156_
*181 _0157_
*182 _0158_
*183 _0159_
*184 _0160_
*185 _0161_
*186 _0162_
*187 _0163_
*188 _0164_
*189 _0165_
*190 _0166_
*191 _0167_
*192 _0168_
*193 _0169_
*194 _0170_
*195 _0171_
*196 _0172_
*197 _0173_
*198 _0174_
*199 _0175_
*200 _0176_
*201 _0177_
*202 _0178_
*203 _0179_
*204 _0180_
*205 _0181_
*206 _0182_
*207 _0183_
*208 _0184_
*209 _0185_
*210 _0186_
*211 _0187_
*212 _0188_
*213 _0189_
*214 _0190_
*215 _0191_
*216 _0192_
*217 _0193_
*218 _0194_
*219 _0195_
*220 _0196_
*221 _0197_
*222 _0198_
*223 _0199_
*224 _0200_
*225 _0201_
*226 _0202_
*227 _0203_
*228 _0204_
*229 _0205_
*230 _0206_
*231 _0207_
*232 _0208_
*233 _0209_
*234 _0210_
*235 _0211_
*236 _0212_
*237 _0213_
*238 _0214_
*239 _0215_
*240 _0216_
*241 _0217_
*242 _0218_
*243 _0219_
*244 _0220_
*245 _0221_
*246 _0222_
*247 _0223_
*248 _0224_
*249 _0225_
*250 _0226_
*251 _0227_
*252 _0228_
*253 _0229_
*254 _0230_
*255 _0231_
*256 _0232_
*257 _0233_
*258 _0234_
*259 _0235_
*260 _0236_
*261 _0237_
*262 _0238_
*263 _0239_
*264 _0240_
*265 _0241_
*266 _0242_
*267 _0243_
*268 _0244_
*269 _0245_
*270 _0246_
*271 _0247_
*272 _0248_
*273 _0249_
*274 _0250_
*275 _0251_
*276 _0252_
*277 _0253_
*278 _0254_
*279 _0255_
*280 _0256_
*281 _0257_
*282 _0258_
*283 _0259_
*284 _0260_
*285 _0261_
*286 _0262_
*287 _0263_
*288 _0264_
*289 _0265_
*290 _0266_
*291 _0267_
*292 _0268_
*293 _0269_
*294 _0270_
*295 _0271_
*296 _0272_
*297 _0273_
*298 _0274_
*299 _0275_
*300 _0276_
*301 _0277_
*302 _0278_
*303 _0279_
*304 _0280_
*305 _0281_
*306 _0282_
*307 _0283_
*308 _0284_
*309 _0285_
*310 _0286_
*311 _0287_
*312 _0288_
*313 _0289_
*314 _0290_
*315 _0291_
*316 _0292_
*317 _0293_
*318 _0294_
*319 _0295_
*320 _0296_
*321 _0297_
*322 _0298_
*323 _0299_
*324 _0300_
*325 _0301_
*326 _0302_
*327 _0303_
*328 _0304_
*329 _0305_
*330 _0306_
*331 _0307_
*332 _0308_
*333 _0309_
*334 _0310_
*335 _0311_
*336 _0312_
*337 _0313_
*338 _0314_
*339 _0315_
*340 _0316_
*341 _0317_
*342 _0318_
*343 _0319_
*344 _0320_
*345 _0321_
*346 _0322_
*347 _0323_
*348 _0324_
*349 _0325_
*350 _0326_
*351 _0327_
*352 _0328_
*353 _0329_
*354 _0330_
*355 _0331_
*356 _0332_
*357 _0333_
*358 _0334_
*359 _0335_
*360 _0336_
*361 _0337_
*362 _0338_
*363 _0339_
*364 _0340_
*365 _0341_
*366 _0342_
*367 _0343_
*368 _0344_
*369 _0345_
*370 _0346_
*371 _0347_
*372 _0348_
*373 _0349_
*374 _0350_
*375 _0351_
*376 _0352_
*377 _0353_
*378 _0354_
*379 _0355_
*380 _0356_
*381 _0357_
*382 _0358_
*383 _0359_
*384 _0360_
*385 _0361_
*386 _0362_
*387 _0363_
*388 _0364_
*389 _0365_
*390 _0366_
*391 _0367_
*392 _0368_
*393 _0369_
*394 _0370_
*395 _0371_
*396 _0372_
*397 _0373_
*398 _0374_
*399 _0375_
*400 _0376_
*401 _0377_
*402 _0378_
*403 _0379_
*404 _0380_
*405 _0381_
*406 _0382_
*407 _0383_
*408 _0384_
*409 _0385_
*410 _0386_
*411 _0387_
*412 _0388_
*413 _0389_
*414 _0390_
*415 _0391_
*416 _0392_
*417 _0393_
*418 _0394_
*419 _0395_
*420 _0396_
*421 _0397_
*422 _0398_
*423 _0399_
*424 _0400_
*425 _0401_
*426 _0402_
*427 _0403_
*428 _0404_
*429 _0405_
*430 _0406_
*431 _0407_
*432 _0408_
*433 _0409_
*434 _0410_
*435 _0411_
*436 _0412_
*437 _0413_
*438 _0414_
*439 _0415_
*440 _0416_
*441 _0417_
*442 _0418_
*443 _0419_
*444 _0420_
*445 _0421_
*446 _0422_
*447 _0423_
*448 _0424_
*449 _0425_
*450 _0426_
*451 _0427_
*452 _0428_
*453 _0429_
*454 _0430_
*455 _0431_
*456 _0432_
*457 _0433_
*458 _0434_
*459 _0435_
*460 _0436_
*461 _0437_
*462 _0438_
*463 _0439_
*464 _0440_
*465 _0441_
*466 _0442_
*467 _0443_
*468 _0444_
*469 _0445_
*470 _0446_
*471 _0447_
*472 _0448_
*473 _0449_
*474 _0450_
*475 _0451_
*476 _0452_
*477 _0453_
*478 _0454_
*479 _0455_
*480 _0456_
*481 _0457_
*482 _0458_
*483 _0459_
*484 _0460_
*485 _0461_
*486 _0462_
*487 _0463_
*488 _0464_
*489 _0465_
*490 _0466_
*491 _0467_
*492 _0468_
*493 _0469_
*494 _0470_
*495 _0471_
*496 _0472_
*497 _0473_
*498 _0474_
*499 _0475_
*500 _0476_
*501 _0477_
*502 _0478_
*503 _0479_
*504 _0480_
*505 _0481_
*506 _0482_
*507 _0483_
*508 _0484_
*509 _0485_
*510 _0486_
*511 _0487_
*512 _0488_
*513 _0489_
*514 _0490_
*515 _0491_
*516 _0492_
*517 _0493_
*518 _0494_
*519 _0495_
*520 _0496_
*521 _0497_
*522 _0498_
*523 _0499_
*524 _0500_
*525 _0501_
*526 _0502_
*527 _0503_
*528 _0504_
*529 _0505_
*530 _0506_
*531 _0507_
*532 _0508_
*533 _0509_
*534 _0510_
*535 _0511_
*536 _0512_
*537 _0513_
*538 _0514_
*539 _0515_
*540 _0516_
*541 _0517_
*542 _0518_
*543 _0519_
*544 _0520_
*545 _0521_
*546 _0522_
*547 _0523_
*548 _0524_
*549 _0525_
*550 _0526_
*551 _0527_
*552 _0528_
*553 _0529_
*554 _0530_
*555 _0531_
*556 _0532_
*557 _0533_
*558 _0534_
*559 _0535_
*560 _0536_
*561 _0537_
*562 _0538_
*563 _0539_
*564 _0540_
*565 _0541_
*566 _0542_
*567 _0543_
*568 _0544_
*569 _0545_
*570 _0546_
*571 _0547_
*572 _0548_
*573 _0549_
*574 _0550_
*575 _0551_
*576 _0552_
*577 _0553_
*578 _0554_
*579 _0555_
*580 _0556_
*581 _0557_
*582 _0558_
*583 _0559_
*584 _0560_
*585 _0561_
*586 _0562_
*587 _0563_
*588 _0564_
*589 _0565_
*590 _0566_
*591 _0567_
*592 _0568_
*593 _0569_
*594 _0570_
*595 _0571_
*596 _0572_
*597 _0573_
*598 _0574_
*599 _0575_
*600 _0576_
*601 _0577_
*602 _0578_
*603 _0579_
*604 _0580_
*605 _0581_
*606 _0582_
*607 _0583_
*608 _0584_
*609 _0585_
*610 _0586_
*611 _0587_
*612 _0588_
*613 _0589_
*614 _0590_
*615 _0591_
*616 _0592_
*617 _0593_
*618 _0594_
*619 _0595_
*620 _0596_
*621 _0597_
*622 _0598_
*623 _0599_
*624 _0600_
*625 _0601_
*626 _0602_
*627 _0603_
*628 _0604_
*629 _0605_
*630 _0606_
*631 _0607_
*632 _0608_
*633 _0609_
*634 _0610_
*635 _0611_
*636 _0612_
*637 _0613_
*638 _0614_
*639 _0615_
*640 _0616_
*641 _0617_
*642 _0618_
*643 _0619_
*644 _0620_
*645 _0621_
*646 _0622_
*647 _0623_
*648 _0624_
*649 _0625_
*650 _0626_
*651 _0627_
*652 _0628_
*653 _0629_
*654 _0630_
*655 _0631_
*656 _0632_
*657 _0633_
*658 _0634_
*659 _0635_
*660 _0636_
*661 _0637_
*662 _0638_
*663 _0639_
*664 _0640_
*665 _0641_
*666 _0642_
*667 _0643_
*668 _0644_
*669 _0645_
*670 _0646_
*671 _0647_
*672 _0648_
*673 _0649_
*674 _0650_
*675 _0651_
*676 _0652_
*677 _0653_
*678 _0654_
*679 _0655_
*680 _0656_
*681 _0657_
*682 _0658_
*683 _0659_
*684 _0660_
*685 _0661_
*686 _0662_
*687 _0663_
*688 _0664_
*689 _0665_
*690 _0666_
*691 _0667_
*692 _0668_
*693 _0669_
*694 _0670_
*695 _0671_
*696 _0672_
*697 _0673_
*698 _0674_
*699 _0675_
*700 _0676_
*701 _0677_
*702 _0678_
*703 _0679_
*704 _0680_
*705 _0681_
*706 _0682_
*707 _0683_
*708 _0684_
*709 _0685_
*710 _0686_
*711 _0687_
*712 _0688_
*713 _0689_
*714 _0690_
*715 _0691_
*716 _0692_
*717 _0693_
*718 _0694_
*719 _0695_
*720 _0696_
*721 _0697_
*722 _0698_
*723 _0699_
*724 _0700_
*725 _0701_
*726 _0702_
*727 _0703_
*728 _0704_
*729 _0705_
*730 _0706_
*731 _0707_
*732 _0708_
*733 _0709_
*734 _0710_
*735 _0711_
*736 _0712_
*737 _0713_
*738 _0714_
*739 _0715_
*740 _0716_
*741 _0717_
*742 _0718_
*743 _0719_
*744 _0720_
*745 _0721_
*746 _0722_
*747 _0723_
*748 _0724_
*749 _0725_
*750 _0726_
*751 _0727_
*752 _0728_
*753 _0729_
*754 _0730_
*755 _0731_
*756 _0732_
*757 _0733_
*758 _0734_
*759 _0735_
*760 _0736_
*761 _0737_
*762 _0738_
*763 _0739_
*764 _0740_
*765 _0741_
*766 _0742_
*767 _0743_
*768 _0744_
*769 _0745_
*770 _0746_
*771 _0747_
*772 _0748_
*773 _0749_
*774 _0750_
*775 _0751_
*776 _0752_
*777 _0753_
*778 _0754_
*779 _0755_
*780 _0756_
*781 _0757_
*782 _0758_
*783 _0759_
*784 _0760_
*785 _0761_
*786 _0762_
*787 _0763_
*788 _0764_
*789 _0765_
*790 _0766_
*791 _0767_
*792 _0768_
*793 _0769_
*794 _0770_
*795 _0771_
*796 _0772_
*797 _0773_
*798 _0774_
*799 _0775_
*800 _0776_
*801 _0777_
*802 _0778_
*803 _0779_
*804 _0780_
*805 _0781_
*806 _0782_
*807 _0783_
*808 _0784_
*809 _0785_
*810 _0786_
*811 _0787_
*812 _0788_
*813 _0789_
*814 _0790_
*815 _0791_
*816 _0792_
*817 _0793_
*818 _0794_
*819 _0795_
*820 _0796_
*821 _0797_
*822 _0798_
*823 _0799_
*824 _0800_
*825 _0801_
*826 _0802_
*827 _0803_
*828 _0804_
*829 _0805_
*830 _0806_
*831 _0807_
*832 _0808_
*833 _0809_
*834 _0810_
*835 _0811_
*836 _0812_
*837 _0813_
*838 _0814_
*839 _0815_
*840 _0816_
*841 _0817_
*842 _0818_
*843 _0819_
*844 _0820_
*845 _0821_
*846 _0822_
*847 _0823_
*848 _0824_
*849 _0825_
*850 _0826_
*851 _0827_
*852 _0828_
*853 _0829_
*854 _0830_
*855 _0831_
*856 _0832_
*857 _0833_
*858 _0834_
*859 _0835_
*860 _0836_
*861 _0837_
*862 _0838_
*863 _0839_
*864 _0840_
*865 _0841_
*866 _0842_
*867 _0843_
*868 _0844_
*869 _0845_
*870 _0846_
*871 _0847_
*872 _0848_
*873 _0849_
*874 _0850_
*875 _0851_
*876 _0852_
*877 _0853_
*878 _0854_
*879 _0855_
*880 _0856_
*881 _0857_
*882 _0858_
*883 _0859_
*884 _0860_
*885 _0861_
*886 _0862_
*887 _0863_
*888 _0864_
*889 _0865_
*890 _0866_
*891 _0867_
*892 _0868_
*893 _0869_
*894 _0870_
*895 _0871_
*896 _0872_
*897 _0873_
*898 _0874_
*899 _0875_
*900 _0876_
*901 _0877_
*902 _0878_
*903 _0879_
*904 _0880_
*905 _0881_
*906 _0882_
*907 _0883_
*908 _0884_
*909 _0885_
*910 _0886_
*911 _0887_
*912 _0888_
*913 _0889_
*914 _0890_
*915 _0891_
*916 _0892_
*917 _0893_
*918 _0894_
*919 _0895_
*920 _0896_
*921 _0897_
*922 _0898_
*923 _0899_
*924 _0900_
*925 _0901_
*926 _0902_
*927 _0903_
*928 _0904_
*929 _0905_
*930 _0906_
*931 _0907_
*932 _0908_
*933 _0909_
*934 _0910_
*935 _0911_
*936 _0912_
*937 _0913_
*938 _0914_
*939 _0915_
*940 _0916_
*941 _0917_
*942 _0918_
*943 _0919_
*944 _0920_
*945 _0921_
*946 _0922_
*947 _0923_
*948 _0924_
*949 _0925_
*950 _0926_
*951 _0927_
*952 _0928_
*953 _0929_
*954 _0930_
*955 _0931_
*956 _0932_
*957 _0933_
*958 _0934_
*959 _0935_
*960 _0936_
*961 _0937_
*962 _0938_
*963 _0939_
*964 _0940_
*965 _0941_
*966 _0942_
*967 _0943_
*968 _0944_
*969 _0945_
*970 _0946_
*971 _0947_
*972 _0948_
*973 _0949_
*974 _0950_
*975 _0951_
*976 _0952_
*977 _0953_
*978 _0954_
*979 _0955_
*980 _0956_
*981 _0957_
*982 _0958_
*983 _0959_
*984 _0960_
*985 _0961_
*986 _0962_
*987 _0963_
*988 _0964_
*989 _0965_
*990 _0966_
*991 _0967_
*992 _0968_
*993 _0969_
*994 _0970_
*995 _0971_
*996 _0972_
*997 _0973_
*998 _0974_
*999 _0975_
*1000 _0976_
*1001 _0977_
*1002 _0978_
*1003 _0979_
*1004 _0980_
*1005 _0981_
*1006 _0982_
*1007 _0983_
*1008 _0984_
*1009 _0985_
*1010 _0986_
*1011 _0987_
*1012 _0988_
*1013 _0989_
*1014 _0990_
*1015 _0991_
*1016 _0992_
*1017 _0993_
*1018 _0994_
*1019 _0995_
*1020 _0996_
*1021 _0997_
*1022 _0998_
*1023 _0999_
*1024 _1000_
*1025 _1001_
*1026 _1002_
*1027 _1003_
*1028 _1004_
*1029 _1005_
*1030 _1006_
*1031 _1007_
*1032 _1008_
*1033 _1009_
*1034 _1010_
*1035 _1011_
*1036 _1012_
*1037 _1013_
*1038 _1014_
*1039 _1015_
*1040 _1016_
*1041 _1017_
*1042 _1018_
*1043 _1019_
*1044 _1020_
*1045 _1021_
*1046 _1022_
*1047 _1023_
*1048 _1024_
*1049 _1025_
*1050 _1026_
*1051 _1027_
*1052 _1028_
*1053 _1029_
*1054 _1030_
*1055 _1031_
*1056 _1032_
*1057 _1033_
*1058 _1034_
*1059 _1035_
*1060 _1036_
*1061 _1037_
*1062 _1038_
*1063 _1039_
*1064 _1040_
*1065 _1041_
*1066 _1042_
*1067 _1043_
*1068 _1044_
*1069 _1045_
*1070 _1046_
*1071 _1047_
*1072 _1048_
*1073 _1049_
*1074 _1050_
*1075 _1051_
*1076 _1052_
*1077 _1053_
*1078 _1054_
*1079 _1055_
*1080 _1056_
*1081 _1057_
*1082 _1058_
*1083 _1059_
*1084 _1060_
*1085 _1061_
*1086 _1062_
*1087 _1063_
*1088 _1064_
*1089 _1065_
*1090 _1066_
*1091 _1067_
*1092 _1068_
*1093 _1069_
*1094 _1070_
*1095 _1071_
*1096 _1072_
*1097 _1073_
*1098 _1074_
*1099 _1075_
*1100 _1076_
*1101 _1077_
*1102 _1078_
*1103 _1079_
*1104 _1080_
*1105 _1081_
*1106 _1082_
*1107 _1083_
*1108 _1084_
*1109 _1085_
*1110 _1086_
*1111 _1087_
*1112 _1088_
*1113 _1089_
*1114 _1090_
*1115 _1091_
*1116 _1092_
*1117 _1093_
*1118 _1094_
*1119 _1095_
*1120 _1096_
*1121 _1097_
*1122 _1098_
*1123 _1099_
*1124 _1100_
*1125 _1101_
*1126 _1102_
*1127 _1103_
*1128 _1104_
*1129 _1105_
*1130 _1106_
*1131 _1107_
*1132 _1108_
*1133 _1109_
*1134 _1110_
*1135 _1111_
*1136 _1112_
*1137 _1113_
*1138 _1114_
*1139 _1115_
*1140 _1116_
*1141 _1117_
*1142 _1118_
*1143 _1119_
*1144 _1120_
*1145 _1121_
*1146 _1122_
*1147 _1123_
*1148 _1124_
*1149 _1125_
*1150 _1126_
*1151 _1127_
*1152 _1128_
*1153 _1129_
*1154 _1130_
*1155 _1131_
*1156 _1132_
*1157 _1133_
*1158 _1134_
*1159 _1135_
*1160 _1136_
*1161 _1137_
*1162 _1138_
*1163 _1139_
*1164 _1140_
*1165 _1141_
*1166 _1142_
*1167 _1143_
*1168 _1144_
*1169 _1145_
*1170 _1146_
*1171 _1147_
*1172 _1148_
*1173 _1149_
*1174 _1150_
*1175 _1151_
*1176 _1152_
*1177 _1153_
*1178 _1154_
*1179 _1155_
*1180 _1156_
*1181 _1157_
*1182 _1158_
*1183 _1159_
*1184 _1160_
*1185 _1161_
*1186 _1162_
*1187 _1163_
*1188 _1164_
*1189 _1165_
*1190 _1166_
*1191 _1167_
*1192 _1168_
*1193 _1169_
*1194 _1170_
*1195 _1171_
*1196 _1172_
*1197 _1173_
*1198 _1174_
*1199 _1175_
*1200 _1176_
*1201 _1177_
*1202 _1178_
*1203 _1179_
*1204 _1180_
*1205 _1181_
*1206 _1182_
*1207 _1183_
*1208 _1184_
*1209 _1185_
*1210 _1186_
*1211 _1187_
*1212 _1188_
*1213 _1189_
*1214 _1190_
*1215 _1191_
*1216 _1192_
*1217 _1193_
*1218 _1194_
*1219 _1195_
*1220 _1196_
*1221 _1197_
*1222 _1198_
*1223 _1199_
*1224 _1200_
*1225 _1201_
*1226 _1202_
*1227 _1203_
*1228 _1204_
*1229 _1205_
*1230 _1206_
*1231 _1207_
*1232 _1208_
*1233 _1209_
*1234 _1210_
*1235 _1211_
*1236 _1212_
*1237 _1213_
*1238 _1214_
*1239 _1215_
*1240 _1216_
*1241 _1217_
*1242 _1218_
*1243 _1219_
*1244 _1220_
*1245 _1221_
*1246 _1222_
*1247 _1223_
*1248 _1224_
*1249 _1225_
*1250 _1226_
*1251 _1227_
*1252 _1228_
*1253 _1229_
*1254 _1230_
*1255 _1231_
*1256 _1232_
*1257 _1233_
*1258 _1234_
*1259 _1235_
*1260 _1236_
*1261 _1237_
*1262 _1238_
*1263 _1239_
*1264 _1240_
*1265 _1241_
*1266 _1242_
*1267 _1243_
*1268 _1244_
*1269 _1245_
*1270 _1246_
*1271 _1247_
*1272 _1248_
*1273 _1249_
*1274 _1250_
*1275 _1251_
*1276 _1252_
*1277 _1253_
*1278 _1254_
*1279 _1255_
*1280 _1256_
*1281 _1257_
*1282 _1258_
*1283 _1259_
*1284 _1260_
*1285 _1261_
*1286 _1262_
*1287 _1263_
*1288 _1264_
*1289 _1265_
*1290 _1266_
*1291 _1267_
*1292 _1268_
*1293 _1269_
*1294 _1270_
*1295 _1271_
*1296 _1272_
*1297 _1273_
*1298 _1274_
*1299 _1275_
*1300 _1276_
*1301 _1277_
*1302 _1278_
*1303 _1279_
*1304 _1280_
*1305 _1281_
*1306 _1282_
*1307 _1283_
*1308 _1284_
*1309 _1285_
*1310 _1286_
*1311 _1287_
*1312 _1288_
*1313 _1289_
*1314 _1290_
*1315 _1291_
*1316 _1292_
*1317 _1293_
*1318 _1294_
*1319 clknet_0_clk
*1320 clknet_2_0__leaf_clk
*1321 clknet_2_1__leaf_clk
*1322 clknet_2_2__leaf_clk
*1323 clknet_2_3__leaf_clk
*1324 clknet_leaf_0_clk
*1325 clknet_leaf_10_clk
*1326 clknet_leaf_11_clk
*1327 clknet_leaf_12_clk
*1328 clknet_leaf_13_clk
*1329 clknet_leaf_14_clk
*1330 clknet_leaf_15_clk
*1331 clknet_leaf_16_clk
*1332 clknet_leaf_17_clk
*1333 clknet_leaf_18_clk
*1334 clknet_leaf_19_clk
*1335 clknet_leaf_1_clk
*1336 clknet_leaf_20_clk
*1337 clknet_leaf_21_clk
*1338 clknet_leaf_22_clk
*1339 clknet_leaf_23_clk
*1340 clknet_leaf_24_clk
*1341 clknet_leaf_25_clk
*1342 clknet_leaf_26_clk
*1343 clknet_leaf_27_clk
*1344 clknet_leaf_28_clk
*1345 clknet_leaf_29_clk
*1346 clknet_leaf_2_clk
*1347 clknet_leaf_30_clk
*1348 clknet_leaf_31_clk
*1349 clknet_leaf_32_clk
*1350 clknet_leaf_33_clk
*1351 clknet_leaf_34_clk
*1352 clknet_leaf_35_clk
*1353 clknet_leaf_36_clk
*1354 clknet_leaf_37_clk
*1355 clknet_leaf_38_clk
*1356 clknet_leaf_39_clk
*1357 clknet_leaf_3_clk
*1358 clknet_leaf_4_clk
*1359 clknet_leaf_5_clk
*1360 clknet_leaf_6_clk
*1361 clknet_leaf_7_clk
*1362 clknet_leaf_8_clk
*1363 clknet_leaf_9_clk
*1364 inputs\.down\.det_edge
*1365 inputs\.down\.ff_in
*1366 inputs\.down\.ff_out
*1367 inputs\.down\.in
*1368 inputs\.frequency_lut\.rng\[0\]
*1369 inputs\.frequency_lut\.rng\[1\]
*1370 inputs\.frequency_lut\.rng\[2\]
*1371 inputs\.frequency_lut\.rng\[3\]
*1372 inputs\.frequency_lut\.rng\[4\]
*1373 inputs\.frequency_lut\.rng\[5\]
*1374 inputs\.key_encoder\.mode_key
*1375 inputs\.key_encoder\.octave_key_up
*1376 inputs\.key_encoder\.sync_keys\[0\]
*1377 inputs\.key_encoder\.sync_keys\[10\]
*1378 inputs\.key_encoder\.sync_keys\[11\]
*1379 inputs\.key_encoder\.sync_keys\[12\]
*1380 inputs\.key_encoder\.sync_keys\[13\]
*1381 inputs\.key_encoder\.sync_keys\[14\]
*1382 inputs\.key_encoder\.sync_keys\[15\]
*1383 inputs\.key_encoder\.sync_keys\[1\]
*1384 inputs\.key_encoder\.sync_keys\[2\]
*1385 inputs\.key_encoder\.sync_keys\[3\]
*1386 inputs\.key_encoder\.sync_keys\[4\]
*1387 inputs\.key_encoder\.sync_keys\[5\]
*1388 inputs\.key_encoder\.sync_keys\[6\]
*1389 inputs\.key_encoder\.sync_keys\[7\]
*1390 inputs\.key_encoder\.sync_keys\[8\]
*1391 inputs\.key_encoder\.sync_keys\[9\]
*1392 inputs\.keypad\[0\]
*1393 inputs\.keypad\[10\]
*1394 inputs\.keypad\[11\]
*1395 inputs\.keypad\[12\]
*1396 inputs\.keypad\[13\]
*1397 inputs\.keypad\[14\]
*1398 inputs\.keypad\[15\]
*1399 inputs\.keypad\[16\]
*1400 inputs\.keypad\[1\]
*1401 inputs\.keypad\[2\]
*1402 inputs\.keypad\[3\]
*1403 inputs\.keypad\[4\]
*1404 inputs\.keypad\[5\]
*1405 inputs\.keypad\[6\]
*1406 inputs\.keypad\[7\]
*1407 inputs\.keypad\[8\]
*1408 inputs\.keypad\[9\]
*1409 inputs\.keypad_synchronizer\.half_sync\[0\]
*1410 inputs\.keypad_synchronizer\.half_sync\[10\]
*1411 inputs\.keypad_synchronizer\.half_sync\[11\]
*1412 inputs\.keypad_synchronizer\.half_sync\[12\]
*1413 inputs\.keypad_synchronizer\.half_sync\[13\]
*1414 inputs\.keypad_synchronizer\.half_sync\[14\]
*1415 inputs\.keypad_synchronizer\.half_sync\[15\]
*1416 inputs\.keypad_synchronizer\.half_sync\[16\]
*1417 inputs\.keypad_synchronizer\.half_sync\[1\]
*1418 inputs\.keypad_synchronizer\.half_sync\[2\]
*1419 inputs\.keypad_synchronizer\.half_sync\[3\]
*1420 inputs\.keypad_synchronizer\.half_sync\[4\]
*1421 inputs\.keypad_synchronizer\.half_sync\[5\]
*1422 inputs\.keypad_synchronizer\.half_sync\[6\]
*1423 inputs\.keypad_synchronizer\.half_sync\[7\]
*1424 inputs\.keypad_synchronizer\.half_sync\[8\]
*1425 inputs\.keypad_synchronizer\.half_sync\[9\]
*1426 inputs\.mode_edge\.det_edge
*1427 inputs\.mode_edge\.ff_in
*1428 inputs\.mode_edge\.ff_out
*1429 inputs\.octave_fsm\.octave_key_up
*1430 inputs\.octave_fsm\.state\[0\]
*1431 inputs\.octave_fsm\.state\[1\]
*1432 inputs\.octave_fsm\.state\[2\]
*1433 inputs\.random_note_generator\.feedback
*1434 inputs\.random_note_generator\.out\[0\]
*1435 inputs\.random_note_generator\.out\[10\]
*1436 inputs\.random_note_generator\.out\[11\]
*1437 inputs\.random_note_generator\.out\[12\]
*1438 inputs\.random_note_generator\.out\[13\]
*1439 inputs\.random_note_generator\.out\[14\]
*1440 inputs\.random_note_generator\.out\[15\]
*1441 inputs\.random_note_generator\.out\[1\]
*1442 inputs\.random_note_generator\.out\[2\]
*1443 inputs\.random_note_generator\.out\[3\]
*1444 inputs\.random_note_generator\.out\[4\]
*1445 inputs\.random_note_generator\.out\[5\]
*1446 inputs\.random_note_generator\.out\[6\]
*1447 inputs\.random_note_generator\.out\[7\]
*1448 inputs\.random_note_generator\.out\[8\]
*1449 inputs\.random_note_generator\.out\[9\]
*1450 inputs\.random_update_clock\.count\[0\]
*1451 inputs\.random_update_clock\.count\[10\]
*1452 inputs\.random_update_clock\.count\[11\]
*1453 inputs\.random_update_clock\.count\[12\]
*1454 inputs\.random_update_clock\.count\[13\]
*1455 inputs\.random_update_clock\.count\[14\]
*1456 inputs\.random_update_clock\.count\[15\]
*1457 inputs\.random_update_clock\.count\[16\]
*1458 inputs\.random_update_clock\.count\[17\]
*1459 inputs\.random_update_clock\.count\[18\]
*1460 inputs\.random_update_clock\.count\[19\]
*1461 inputs\.random_update_clock\.count\[1\]
*1462 inputs\.random_update_clock\.count\[20\]
*1463 inputs\.random_update_clock\.count\[21\]
*1464 inputs\.random_update_clock\.count\[22\]
*1465 inputs\.random_update_clock\.count\[2\]
*1466 inputs\.random_update_clock\.count\[3\]
*1467 inputs\.random_update_clock\.count\[4\]
*1468 inputs\.random_update_clock\.count\[5\]
*1469 inputs\.random_update_clock\.count\[6\]
*1470 inputs\.random_update_clock\.count\[7\]
*1471 inputs\.random_update_clock\.count\[8\]
*1472 inputs\.random_update_clock\.count\[9\]
*1473 inputs\.random_update_clock\.next_count\[0\]
*1474 inputs\.random_update_clock\.next_count\[10\]
*1475 inputs\.random_update_clock\.next_count\[11\]
*1476 inputs\.random_update_clock\.next_count\[12\]
*1477 inputs\.random_update_clock\.next_count\[13\]
*1478 inputs\.random_update_clock\.next_count\[14\]
*1479 inputs\.random_update_clock\.next_count\[15\]
*1480 inputs\.random_update_clock\.next_count\[16\]
*1481 inputs\.random_update_clock\.next_count\[17\]
*1482 inputs\.random_update_clock\.next_count\[18\]
*1483 inputs\.random_update_clock\.next_count\[19\]
*1484 inputs\.random_update_clock\.next_count\[1\]
*1485 inputs\.random_update_clock\.next_count\[20\]
*1486 inputs\.random_update_clock\.next_count\[21\]
*1487 inputs\.random_update_clock\.next_count\[22\]
*1488 inputs\.random_update_clock\.next_count\[2\]
*1489 inputs\.random_update_clock\.next_count\[3\]
*1490 inputs\.random_update_clock\.next_count\[4\]
*1491 inputs\.random_update_clock\.next_count\[5\]
*1492 inputs\.random_update_clock\.next_count\[6\]
*1493 inputs\.random_update_clock\.next_count\[7\]
*1494 inputs\.random_update_clock\.next_count\[8\]
*1495 inputs\.random_update_clock\.next_count\[9\]
*1496 inputs\.up\.ff_in
*1497 inputs\.up\.ff_out
*1498 inputs\.wavetype_fsm\.next_state\[0\]
*1499 inputs\.wavetype_fsm\.next_state\[1\]
*1500 inputs\.wavetype_fsm\.state\[0\]
*1501 inputs\.wavetype_fsm\.state\[1\]
*1502 net1
*1503 net10
*1504 net100
*1505 net101
*1506 net102
*1507 net103
*1508 net104
*1509 net105
*1510 net106
*1511 net107
*1512 net108
*1513 net109
*1514 net11
*1515 net110
*1516 net111
*1517 net112
*1518 net113
*1519 net114
*1520 net115
*1521 net116
*1522 net117
*1523 net118
*1524 net119
*1525 net12
*1526 net120
*1527 net121
*1528 net122
*1529 net123
*1530 net124
*1531 net125
*1532 net126
*1533 net127
*1534 net128
*1535 net129
*1536 net13
*1537 net130
*1538 net131
*1539 net132
*1540 net133
*1541 net134
*1542 net135
*1543 net136
*1544 net137
*1545 net138
*1546 net139
*1547 net14
*1548 net140
*1549 net141
*1550 net142
*1551 net143
*1552 net144
*1553 net145
*1554 net146
*1555 net147
*1556 net148
*1557 net149
*1558 net15
*1559 net150
*1560 net151
*1561 net152
*1562 net153
*1563 net154
*1564 net155
*1565 net156
*1566 net157
*1567 net158
*1568 net159
*1569 net16
*1570 net160
*1571 net161
*1572 net162
*1573 net163
*1574 net164
*1575 net165
*1576 net166
*1577 net167
*1578 net168
*1579 net169
*1580 net17
*1581 net170
*1582 net171
*1583 net172
*1584 net173
*1585 net174
*1586 net175
*1587 net176
*1588 net177
*1589 net178
*1590 net179
*1591 net18
*1592 net180
*1593 net181
*1594 net182
*1595 net183
*1596 net184
*1597 net185
*1598 net186
*1599 net187
*1600 net188
*1601 net189
*1602 net19
*1603 net190
*1604 net191
*1605 net192
*1606 net193
*1607 net194
*1608 net195
*1609 net196
*1610 net197
*1611 net198
*1612 net199
*1613 net2
*1614 net20
*1615 net200
*1616 net201
*1617 net202
*1618 net203
*1619 net204
*1620 net205
*1621 net206
*1622 net207
*1623 net208
*1624 net209
*1625 net21
*1626 net210
*1627 net211
*1628 net212
*1629 net213
*1630 net214
*1631 net215
*1632 net216
*1633 net217
*1634 net218
*1635 net219
*1636 net22
*1637 net220
*1638 net221
*1639 net222
*1640 net223
*1641 net224
*1642 net225
*1643 net226
*1644 net227
*1645 net228
*1646 net229
*1647 net23
*1648 net230
*1649 net231
*1650 net232
*1651 net233
*1652 net234
*1653 net235
*1654 net236
*1655 net237
*1656 net238
*1657 net239
*1658 net24
*1659 net240
*1660 net241
*1661 net242
*1662 net243
*1663 net244
*1664 net245
*1665 net246
*1666 net247
*1667 net248
*1668 net249
*1669 net25
*1670 net250
*1671 net251
*1672 net252
*1673 net253
*1674 net254
*1675 net255
*1676 net256
*1677 net257
*1678 net258
*1679 net259
*1680 net26
*1681 net260
*1682 net261
*1683 net262
*1684 net263
*1685 net264
*1686 net265
*1687 net266
*1688 net267
*1689 net268
*1690 net269
*1691 net27
*1692 net270
*1693 net271
*1694 net272
*1695 net273
*1696 net274
*1697 net275
*1698 net276
*1699 net277
*1700 net278
*1701 net279
*1702 net28
*1703 net280
*1704 net281
*1705 net282
*1706 net283
*1707 net284
*1708 net285
*1709 net286
*1710 net287
*1711 net288
*1712 net289
*1713 net29
*1714 net290
*1715 net291
*1716 net292
*1717 net293
*1718 net294
*1719 net295
*1720 net296
*1721 net297
*1722 net298
*1723 net299
*1724 net3
*1725 net30
*1726 net300
*1727 net301
*1728 net302
*1729 net303
*1730 net304
*1731 net305
*1732 net306
*1733 net307
*1734 net308
*1735 net309
*1736 net31
*1737 net310
*1738 net311
*1739 net312
*1740 net313
*1741 net314
*1742 net315
*1743 net316
*1744 net317
*1745 net318
*1746 net319
*1747 net32
*1748 net33
*1749 net34
*1750 net35
*1751 net36
*1752 net37
*1753 net38
*1754 net39
*1755 net4
*1756 net40
*1757 net41
*1758 net42
*1759 net43
*1760 net44
*1761 net45
*1762 net46
*1763 net47
*1764 net48
*1765 net49
*1766 net5
*1767 net50
*1768 net51
*1769 net52
*1770 net53
*1771 net54
*1772 net55
*1773 net56
*1774 net57
*1775 net58
*1776 net59
*1777 net6
*1778 net60
*1779 net61
*1780 net62
*1781 net63
*1782 net64
*1783 net65
*1784 net66
*1785 net67
*1786 net68
*1787 net69
*1788 net7
*1789 net70
*1790 net71
*1791 net72
*1792 net73
*1793 net74
*1794 net75
*1795 net76
*1796 net77
*1797 net78
*1798 net79
*1799 net8
*1800 net80
*1801 net81
*1802 net82
*1803 net83
*1804 net84
*1805 net85
*1806 net86
*1807 net87
*1808 net88
*1809 net89
*1810 net9
*1811 net90
*1812 net91
*1813 net92
*1814 net93
*1815 net94
*1816 net95
*1817 net96
*1818 net97
*1819 net98
*1820 net99
*1821 outputs\.div\.a\[0\]
*1822 outputs\.div\.a\[10\]
*1823 outputs\.div\.a\[11\]
*1824 outputs\.div\.a\[12\]
*1825 outputs\.div\.a\[13\]
*1826 outputs\.div\.a\[14\]
*1827 outputs\.div\.a\[15\]
*1828 outputs\.div\.a\[16\]
*1829 outputs\.div\.a\[17\]
*1830 outputs\.div\.a\[18\]
*1831 outputs\.div\.a\[19\]
*1832 outputs\.div\.a\[1\]
*1833 outputs\.div\.a\[20\]
*1834 outputs\.div\.a\[21\]
*1835 outputs\.div\.a\[22\]
*1836 outputs\.div\.a\[23\]
*1837 outputs\.div\.a\[24\]
*1838 outputs\.div\.a\[25\]
*1839 outputs\.div\.a\[2\]
*1840 outputs\.div\.a\[3\]
*1841 outputs\.div\.a\[4\]
*1842 outputs\.div\.a\[5\]
*1843 outputs\.div\.a\[6\]
*1844 outputs\.div\.a\[7\]
*1845 outputs\.div\.a\[8\]
*1846 outputs\.div\.a\[9\]
*1847 outputs\.div\.count\[0\]
*1848 outputs\.div\.count\[1\]
*1849 outputs\.div\.count\[2\]
*1850 outputs\.div\.count\[3\]
*1851 outputs\.div\.count\[4\]
*1852 outputs\.div\.div
*1853 outputs\.div\.divisor\[0\]
*1854 outputs\.div\.divisor\[10\]
*1855 outputs\.div\.divisor\[11\]
*1856 outputs\.div\.divisor\[12\]
*1857 outputs\.div\.divisor\[13\]
*1858 outputs\.div\.divisor\[14\]
*1859 outputs\.div\.divisor\[15\]
*1860 outputs\.div\.divisor\[16\]
*1861 outputs\.div\.divisor\[17\]
*1862 outputs\.div\.divisor\[1\]
*1863 outputs\.div\.divisor\[2\]
*1864 outputs\.div\.divisor\[3\]
*1865 outputs\.div\.divisor\[4\]
*1866 outputs\.div\.divisor\[5\]
*1867 outputs\.div\.divisor\[6\]
*1868 outputs\.div\.divisor\[7\]
*1869 outputs\.div\.divisor\[8\]
*1870 outputs\.div\.divisor\[9\]
*1871 outputs\.div\.m\[0\]
*1872 outputs\.div\.m\[10\]
*1873 outputs\.div\.m\[11\]
*1874 outputs\.div\.m\[12\]
*1875 outputs\.div\.m\[13\]
*1876 outputs\.div\.m\[14\]
*1877 outputs\.div\.m\[15\]
*1878 outputs\.div\.m\[16\]
*1879 outputs\.div\.m\[17\]
*1880 outputs\.div\.m\[1\]
*1881 outputs\.div\.m\[2\]
*1882 outputs\.div\.m\[3\]
*1883 outputs\.div\.m\[4\]
*1884 outputs\.div\.m\[5\]
*1885 outputs\.div\.m\[6\]
*1886 outputs\.div\.m\[7\]
*1887 outputs\.div\.m\[8\]
*1888 outputs\.div\.m\[9\]
*1889 outputs\.div\.next_div
*1890 outputs\.div\.next_start
*1891 outputs\.div\.oscillator_out\[0\]
*1892 outputs\.div\.oscillator_out\[10\]
*1893 outputs\.div\.oscillator_out\[11\]
*1894 outputs\.div\.oscillator_out\[12\]
*1895 outputs\.div\.oscillator_out\[13\]
*1896 outputs\.div\.oscillator_out\[14\]
*1897 outputs\.div\.oscillator_out\[15\]
*1898 outputs\.div\.oscillator_out\[16\]
*1899 outputs\.div\.oscillator_out\[17\]
*1900 outputs\.div\.oscillator_out\[1\]
*1901 outputs\.div\.oscillator_out\[2\]
*1902 outputs\.div\.oscillator_out\[3\]
*1903 outputs\.div\.oscillator_out\[4\]
*1904 outputs\.div\.oscillator_out\[5\]