*SPEF "ieee 1481-1999"
*DESIGN "Synthia"
*DATE "11:11:11 Fri 11 11, 1111"
*VENDOR "OpenRCX"
*PROGRAM "Parallel Extraction"
*VERSION "1.0"
*DESIGN_FLOW "NAME_SCOPE LOCAL" "PIN_CAP NONE"
*DIVIDER /
*DELIMITER :
*BUS_DELIMITER []
*T_UNIT 1 NS
*C_UNIT 1 PF
*R_UNIT 1 OHM
*L_UNIT 1 HENRY

*NAME_MAP
*1 PWM_o
*4 clk
*5 modes
*6 octaves
*7 pb[0]
*8 pb[10]
*9 pb[11]
*10 pb[12]
*11 pb[1]
*12 pb[2]
*13 pb[3]
*14 pb[4]
*15 pb[5]
*16 pb[6]
*17 pb[7]
*18 pb[8]
*19 pb[9]
*20 reset
*21 _0000_
*22 _0001_
*23 _0002_
*24 _0003_
*25 _0004_
*26 _0005_
*27 _0006_
*28 _0007_
*29 _0008_
*30 _0009_
*31 _0010_
*32 _0011_
*33 _0012_
*34 _0013_
*35 _0014_
*36 _0015_
*37 _0016_
*38 _0017_
*39 _0018_
*40 _0019_
*41 _0020_
*42 _0021_
*43 _0022_
*44 _0023_
*45 _0024_
*46 _0025_
*47 _0026_
*48 _0027_
*49 _0028_
*50 _0029_
*51 _0030_
*52 _0031_
*53 _0032_
*54 _0033_
*55 _0034_
*56 _0035_
*57 _0036_
*58 _0037_
*59 _0038_
*60 _0039_
*61 _0040_
*62 _0041_
*63 _0042_
*64 _0043_
*65 _0044_
*66 _0045_
*67 _0046_
*68 _0047_
*69 _0048_
*70 _0049_
*71 _0050_
*72 _0051_
*73 _0052_
*74 _0053_
*75 _0054_
*76 _0055_
*77 _0056_
*78 _0057_
*79 _0058_
*80 _0059_
*81 _0060_
*82 _0061_
*83 _0062_
*84 _0063_
*85 _0064_
*86 _0065_
*87 _0066_
*88 _0067_
*89 _0068_
*90 _0069_
*91 _0070_
*92 _0071_
*93 _0072_
*94 _0073_
*95 _0074_
*96 _0075_
*97 _0076_
*98 _0077_
*99 _0078_
*100 _0079_
*101 _0080_
*102 _0081_
*103 _0082_
*104 _0083_
*105 _0084_
*106 _0085_
*107 _0086_
*108 _0087_
*109 _0088_
*110 _0089_
*111 _0090_
*112 _0091_
*113 _0092_
*114 _0093_
*115 _0094_
*116 _0095_
*117 _0096_
*118 _0097_
*119 _0098_
*120 _0099_
*121 _0100_
*122 _0101_
*123 _0102_
*124 _0103_
*125 _0104_
*126 _0105_
*127 _0106_
*128 _0107_
*129 _0108_
*130 _0109_
*131 _0110_
*132 _0111_
*133 _0112_
*134 _0113_
*135 _0114_
*136 _0115_
*137 _0116_
*138 _0117_
*139 _0118_
*140 _0119_
*141 _0120_
*142 _0121_
*143 _0122_
*144 _0123_
*145 _0124_
*146 _0125_
*147 _0126_
*148 _0127_
*149 _0128_
*150 _0129_
*151 _0130_
*152 _0131_
*153 _0132_
*154 _0133_
*155 _0134_
*156 _0135_
*157 _0136_
*158 _0137_
*159 _0138_
*160 _0139_
*161 _0140_
*162 _0141_
*163 _0142_
*164 _0143_
*165 _0144_
*166 _0145_
*167 _0146_
*168 _0147_
*169 _0148_
*170 _0149_
*171 _0150_
*172 _0151_
*173 _0152_
*174 _0153_
*175 _0154_
*176 _0155_
*177 _0156_
*178 _0157_
*179 _0158_
*180 _0159_
*181 _0160_
*182 _0161_
*183 _0162_
*184 _0163_
*185 _0164_
*186 _0165_
*187 _0166_
*188 _0167_
*189 _0168_
*190 _0169_
*191 _0170_
*192 _0171_
*193 _0172_
*194 _0173_
*195 _0174_
*196 _0175_
*197 _0176_
*198 _0177_
*199 _0178_
*200 _0179_
*201 _0180_
*202 _0181_
*203 _0182_
*204 _0183_
*205 _0184_
*206 _0185_
*207 _0186_
*208 _0187_
*209 _0188_
*210 _0189_
*211 _0190_
*212 _0191_
*213 _0192_
*214 _0193_
*215 _0194_
*216 _0195_
*217 _0196_
*218 _0197_
*219 _0198_
*220 _0199_
*221 _0200_
*222 _0201_
*223 _0202_
*224 _0203_
*225 _0204_
*226 _0205_
*227 _0206_
*228 _0207_
*229 _0208_
*230 _0209_
*231 _0210_
*232 _0211_
*233 _0212_
*234 _0213_
*235 _0214_
*236 _0215_
*237 _0216_
*238 _0217_
*239 _0218_
*240 _0219_
*241 _0220_
*242 _0221_
*243 _0222_
*244 _0223_
*245 _0224_
*246 _0225_
*247 _0226_
*248 _0227_
*249 _0228_
*250 _0229_
*251 _0230_
*252 _0231_
*253 _0232_
*254 _0233_
*255 _0234_
*256 _0235_
*257 _0236_
*258 _0237_
*259 _0238_
*260 _0239_
*261 _0240_
*262 _0241_
*263 _0242_
*264 _0243_
*265 _0244_
*266 _0245_
*267 _0246_
*268 _0247_
*269 _0248_
*270 _0249_
*271 _0250_
*272 _0251_
*273 _0252_
*274 _0253_
*275 _0254_
*276 _0255_
*277 _0256_
*278 _0257_
*279 _0258_
*280 _0259_
*281 _0260_
*282 _0261_
*283 _0262_
*284 _0263_
*285 _0264_
*286 _0265_
*287 _0266_
*288 _0267_
*289 _0268_
*290 _0269_
*291 _0270_
*292 _0271_
*293 _0272_
*294 _0273_
*295 _0274_
*296 _0275_
*297 _0276_
*298 _0277_
*299 _0278_
*300 _0279_
*301 _0280_
*302 _0281_
*303 _0282_
*304 _0283_
*305 _0284_
*306 _0285_
*307 _0286_
*308 _0287_
*309 _0288_
*310 _0289_
*311 _0290_
*312 _0291_
*313 _0292_
*314 _0293_
*315 _0294_
*316 _0295_
*317 _0296_
*318 _0297_
*319 _0298_
*320 _0299_
*321 _0300_
*322 _0301_
*323 _0302_
*324 _0303_
*325 _0304_
*326 _0305_
*327 _0306_
*328 _0307_
*329 _0308_
*330 _0309_
*331 _0310_
*332 _0311_
*333 _0312_
*334 _0313_
*335 _0314_
*336 _0315_
*337 _0316_
*338 _0317_
*339 _0318_
*340 _0319_
*341 _0320_
*342 _0321_
*343 _0322_
*344 _0323_
*345 _0324_
*346 _0325_
*347 _0326_
*348 _0327_
*349 _0328_
*350 _0329_
*351 _0330_
*352 _0331_
*353 _0332_
*354 _0333_
*355 _0334_
*356 _0335_
*357 _0336_
*358 _0337_
*359 _0338_
*360 _0339_
*361 _0340_
*362 _0341_
*363 _0342_
*364 _0343_
*365 _0344_
*366 _0345_
*367 _0346_
*368 _0347_
*369 _0348_
*370 _0349_
*371 _0350_
*372 _0351_
*373 _0352_
*374 _0353_
*375 _0354_
*376 _0355_
*377 _0356_
*378 _0357_
*379 _0358_
*380 _0359_
*381 _0360_
*382 _0361_
*383 _0362_
*384 _0363_
*385 _0364_
*386 _0365_
*387 _0366_
*388 _0367_
*389 _0368_
*390 _0369_
*391 _0370_
*392 _0371_
*393 _0372_
*394 _0373_
*395 _0374_
*396 _0375_
*397 _0376_
*398 _0377_
*399 _0378_
*400 _0379_
*401 _0380_
*402 _0381_
*403 _0382_
*404 _0383_
*405 _0384_
*406 _0385_
*407 _0386_
*408 _0387_
*409 _0388_
*410 _0389_
*411 _0390_
*412 _0391_
*413 _0392_
*414 _0393_
*415 _0394_
*416 _0395_
*417 _0396_
*418 _0397_
*419 _0398_
*420 _0399_
*421 _0400_
*422 _0401_
*423 _0402_
*424 _0403_
*425 _0404_
*426 _0405_
*427 _0406_
*428 _0407_
*429 _0408_
*430 _0409_
*431 _0410_
*432 _0411_
*433 _0412_
*434 _0413_
*435 _0414_
*436 _0415_
*437 _0416_
*438 _0417_
*439 _0418_
*440 _0419_
*441 _0420_
*442 _0421_
*443 _0422_
*444 _0423_
*445 _0424_
*446 _0425_
*447 _0426_
*448 _0427_
*449 _0428_
*450 _0429_
*451 _0430_
*452 _0431_
*453 _0432_
*454 _0433_
*455 _0434_
*456 _0435_
*457 _0436_
*458 _0437_
*459 _0438_
*460 _0439_
*461 _0440_
*462 _0441_
*463 _0442_
*464 _0443_
*465 _0444_
*466 _0445_
*467 _0446_
*468 _0447_
*469 _0448_
*470 _0449_
*471 _0450_
*472 _0451_
*473 _0452_
*474 _0453_
*475 _0454_
*476 _0455_
*477 _0456_
*478 _0457_
*479 _0458_
*480 _0459_
*481 _0460_
*482 _0461_
*483 _0462_
*484 _0463_
*485 _0464_
*486 _0465_
*487 _0466_
*488 _0467_
*489 _0468_
*490 _0469_
*491 _0470_
*492 _0471_
*493 _0472_
*494 _0473_
*495 _0474_
*496 _0475_
*497 _0476_
*498 _0477_
*499 _0478_
*500 _0479_
*501 _0480_
*502 _0481_
*503 _0482_
*504 _0483_
*505 _0484_
*506 _0485_
*507 _0486_
*508 _0487_
*509 _0488_
*510 _0489_
*511 _0490_
*512 _0491_
*513 _0492_
*514 _0493_
*515 _0494_
*516 _0495_
*517 _0496_
*518 _0497_
*519 _0498_
*520 _0499_
*521 _0500_
*522 _0501_
*523 _0502_
*524 _0503_
*525 _0504_
*526 _0505_
*527 _0506_
*528 _0507_
*529 _0508_
*530 _0509_
*531 _0510_
*532 _0511_
*533 _0512_
*534 _0513_
*535 _0514_
*536 _0515_
*537 _0516_
*538 _0517_
*539 _0518_
*540 _0519_
*541 _0520_
*542 _0521_
*543 _0522_
*544 _0523_
*545 _0524_
*546 _0525_
*547 _0526_
*548 _0527_
*549 _0528_
*550 _0529_
*551 _0530_
*552 _0531_
*553 _0532_
*554 _0533_
*555 _0534_
*556 _0535_
*557 _0536_
*558 _0537_
*559 _0538_
*560 _0539_
*561 _0540_
*562 _0541_
*563 _0542_
*564 _0543_
*565 _0544_
*566 _0545_
*567 _0546_
*568 _0547_
*569 _0548_
*570 _0549_
*571 _0550_
*572 _0551_
*573 _0552_
*574 _0553_
*575 _0554_
*576 _0555_
*577 _0556_
*578 _0557_
*579 _0558_
*580 _0559_
*581 _0560_
*582 _0561_
*583 _0562_
*584 _0563_
*585 _0564_
*586 _0565_
*587 _0566_
*588 _0567_
*589 _0568_
*590 _0569_
*591 _0570_
*592 _0571_
*593 _0572_
*594 _0573_
*595 _0574_
*596 _0575_
*597 _0576_
*598 _0577_
*599 _0578_
*600 _0579_
*601 _0580_
*602 _0581_
*603 _0582_
*604 _0583_
*605 _0584_
*606 _0585_
*607 _0586_
*608 _0587_
*609 _0588_
*610 _0589_
*611 _0590_
*612 _0591_
*613 _0592_
*614 _0593_
*615 _0594_
*616 _0595_
*617 _0596_
*618 _0597_
*619 _0598_
*620 _0599_
*621 _0600_
*622 _0601_
*623 _0602_
*624 _0603_
*625 _0604_
*626 _0605_
*627 _0606_
*628 _0607_
*629 _0608_
*630 _0609_
*631 _0610_
*632 _0611_
*633 _0612_
*634 _0613_
*635 _0614_
*636 _0615_
*637 _0616_
*638 _0617_
*639 _0618_
*640 _0619_
*641 _0620_
*642 _0621_
*643 _0622_
*644 _0623_
*645 _0624_
*646 _0625_
*647 _0626_
*648 _0627_
*649 _0628_
*650 _0629_
*651 _0630_
*652 _0631_
*653 _0632_
*654 _0633_
*655 _0634_
*656 _0635_
*657 _0636_
*658 _0637_
*659 _0638_
*660 _0639_
*661 _0640_
*662 _0641_
*663 _0642_
*664 _0643_
*665 _0644_
*666 _0645_
*667 _0646_
*668 _0647_
*669 _0648_
*670 _0649_
*671 _0650_
*672 _0651_
*673 _0652_
*674 _0653_
*675 _0654_
*676 _0655_
*677 _0656_
*678 _0657_
*679 _0658_
*680 _0659_
*681 _0660_
*682 _0661_
*683 _0662_
*684 _0663_
*685 _0664_
*686 _0665_
*687 _0666_
*688 _0667_
*689 _0668_
*690 _0669_
*691 _0670_
*692 _0671_
*693 _0672_
*694 _0673_
*695 _0674_
*696 _0675_
*697 _0676_
*698 _0677_
*699 _0678_
*700 _0679_
*701 _0680_
*702 _0681_
*703 _0682_
*704 _0683_
*705 _0684_
*706 _0685_
*707 _0686_
*708 _0687_
*709 _0688_
*710 _0689_
*711 _0690_
*712 _0691_
*713 _0692_
*714 _0693_
*715 _0694_
*716 _0695_
*717 _0696_
*718 _0697_
*719 _0698_
*720 _0699_
*721 _0700_
*722 _0701_
*723 _0702_
*724 _0703_
*725 _0704_
*726 _0705_
*727 _0706_
*728 _0707_
*729 _0708_
*730 _0709_
*731 _0710_
*732 _0711_
*733 _0712_
*734 _0713_
*735 _0714_
*736 _0715_
*737 _0716_
*738 _0717_
*739 _0718_
*740 _0719_
*741 _0720_
*742 _0721_
*743 _0722_
*744 _0723_
*745 _0724_
*746 _0725_
*747 _0726_
*748 _0727_
*749 _0728_
*750 _0729_
*751 _0730_
*752 _0731_
*753 _0732_
*754 _0733_
*755 _0734_
*756 _0735_
*757 _0736_
*758 _0737_
*759 _0738_
*760 _0739_
*761 _0740_
*762 _0741_
*763 _0742_
*764 _0743_
*765 _0744_
*766 _0745_
*767 _0746_
*768 _0747_
*769 _0748_
*770 _0749_
*771 _0750_
*772 _0751_
*773 _0752_
*774 _0753_
*775 _0754_
*776 _0755_
*777 _0756_
*778 _0757_
*779 _0758_
*780 _0759_
*781 _0760_
*782 _0761_
*783 _0762_
*784 _0763_
*785 _0764_
*786 _0765_
*787 _0766_
*788 _0767_
*789 _0768_
*790 _0769_
*791 _0770_
*792 _0771_
*793 _0772_
*794 _0773_
*795 _0774_
*796 _0775_
*797 _0776_
*798 _0777_
*799 _0778_
*800 _0779_
*801 _0780_
*802 _0781_
*803 _0782_
*804 _0783_
*805 _0784_
*806 _0785_
*807 _0786_
*808 _0787_
*809 _0788_
*810 _0789_
*811 _0790_
*812 _0791_
*813 _0792_
*814 _0793_
*815 _0794_
*816 _0795_
*817 _0796_
*818 _0797_
*819 _0798_
*820 _0799_
*821 _0800_
*822 _0801_
*823 _0802_
*824 _0803_
*825 _0804_
*826 _0805_
*827 _0806_
*828 _0807_
*829 _0808_
*830 _0809_
*831 _0810_
*832 _0811_
*833 _0812_
*834 _0813_
*835 _0814_
*836 _0815_
*837 _0816_
*838 _0817_
*839 _0818_
*840 _0819_
*841 _0820_
*842 _0821_
*843 _0822_
*844 _0823_
*845 _0824_
*846 _0825_
*847 _0826_
*848 _0827_
*849 _0828_
*850 _0829_
*851 _0830_
*852 _0831_
*853 _0832_
*854 _0833_
*855 _0834_
*856 _0835_
*857 _0836_
*858 _0837_
*859 _0838_
*860 _0839_
*861 _0840_
*862 _0841_
*863 _0842_
*864 _0843_
*865 _0844_
*866 _0845_
*867 _0846_
*868 _0847_
*869 _0848_
*870 _0849_
*871 _0850_
*872 _0851_
*873 _0852_
*874 _0853_
*875 _0854_
*876 _0855_
*877 _0856_
*878 _0857_
*879 _0858_
*880 _0859_
*881 _0860_
*882 _0861_
*883 _0862_
*884 _0863_
*885 _0864_
*886 _0865_
*887 _0866_
*888 _0867_
*889 _0868_
*890 _0869_
*891 _0870_
*892 _0871_
*893 _0872_
*894 _0873_
*895 _0874_
*896 _0875_
*897 _0876_
*898 _0877_
*899 _0878_
*900 _0879_
*901 _0880_
*902 _0881_
*903 _0882_
*904 _0883_
*905 _0884_
*906 _0885_
*907 _0886_
*908 _0887_
*909 _0888_
*910 _0889_
*911 _0890_
*912 _0891_
*913 _0892_
*914 _0893_
*915 _0894_
*916 _0895_
*917 _0896_
*918 _0897_
*919 _0898_
*920 _0899_
*921 _0900_
*922 _0901_
*923 _0902_
*924 _0903_
*925 _0904_
*926 _0905_
*927 _0906_
*928 _0907_
*929 _0908_
*930 _0909_
*931 _0910_
*932 _0911_
*933 _0912_
*934 _0913_
*935 _0914_
*936 _0915_
*937 _0916_
*938 _0917_
*939 _0918_
*940 _0919_
*941 _0920_
*942 _0921_
*943 _0922_
*944 _0923_
*945 _0924_
*946 _0925_
*947 _0926_
*948 _0927_
*949 _0928_
*950 _0929_
*951 _0930_
*952 _0931_
*953 _0932_
*954 _0933_
*955 _0934_
*956 _0935_
*957 _0936_
*958 _0937_
*959 _0938_
*960 _0939_
*961 _0940_
*962 _0941_
*963 _0942_
*964 _0943_
*965 _0944_
*966 _0945_
*967 _0946_
*968 _0947_
*969 _0948_
*970 _0949_
*971 _0950_
*972 _0951_
*973 _0952_
*974 _0953_
*975 _0954_
*976 _0955_
*977 _0956_
*978 _0957_
*979 _0958_
*980 _0959_
*981 _0960_
*982 _0961_
*983 _0962_
*984 _0963_
*985 _0964_
*986 _0965_
*987 _0966_
*988 _0967_
*989 _0968_
*990 _0969_
*991 _0970_
*992 _0971_
*993 _0972_
*994 _0973_
*995 _0974_
*996 _0975_
*997 _0976_
*998 _0977_
*999 _0978_
*1000 _0979_
*1001 _0980_
*1002 _0981_
*1003 _0982_
*1004 _0983_
*1005 _0984_
*1006 _0985_
*1007 _0986_
*1008 _0987_
*1009 _0988_
*1010 _0989_
*1011 _0990_
*1012 _0991_
*1013 _0992_
*1014 _0993_
*1015 _0994_
*1016 _0995_
*1017 _0996_
*1018 _0997_
*1019 _0998_
*1020 _0999_
*1021 _1000_
*1022 _1001_
*1023 _1002_
*1024 _1003_
*1025 _1004_
*1026 _1005_
*1027 _1006_
*1028 _1007_
*1029 _1008_
*1030 _1009_
*1031 _1010_
*1032 _1011_
*1033 _1012_
*1034 _1013_
*1035 _1014_
*1036 _1015_
*1037 _1016_
*1038 _1017_
*1039 _1018_
*1040 _1019_
*1041 _1020_
*1042 _1021_
*1043 _1022_
*1044 _1023_
*1045 _1024_
*1046 _1025_
*1047 _1026_
*1048 _1027_
*1049 _1028_
*1050 _1029_
*1051 _1030_
*1052 _1031_
*1053 _1032_
*1054 _1033_
*1055 _1034_
*1056 _1035_
*1057 _1036_
*1058 _1037_
*1059 _1038_
*1060 _1039_
*1061 _1040_
*1062 _1041_
*1063 _1042_
*1064 _1043_
*1065 _1044_
*1066 _1045_
*1067 _1046_
*1068 _1047_
*1069 _1048_
*1070 _1049_
*1071 _1050_
*1072 _1051_
*1073 _1052_
*1074 _1053_
*1075 _1054_
*1076 _1055_
*1077 _1056_
*1078 _1057_
*1079 _1058_
*1080 _1059_
*1081 _1060_
*1082 _1061_
*1083 _1062_
*1084 _1063_
*1085 _1064_
*1086 _1065_
*1087 _1066_
*1088 _1067_
*1089 _1068_
*1090 _1069_
*1091 _1070_
*1092 _1071_
*1093 _1072_
*1094 _1073_
*1095 _1074_
*1096 _1075_
*1097 _1076_
*1098 _1077_
*1099 _1078_
*1100 _1079_
*1101 _1080_
*1102 _1081_
*1103 _1082_
*1104 _1083_
*1105 _1084_
*1106 _1085_
*1107 _1086_
*1108 _1087_
*1109 _1088_
*1110 _1089_
*1111 _1090_
*1112 _1091_
*1113 _1092_
*1114 _1093_
*1115 _1094_
*1116 _1095_
*1117 _1096_
*1118 _1097_
*1119 _1098_
*1120 _1099_
*1121 _1100_
*1122 _1101_
*1123 _1102_
*1124 _1103_
*1125 _1104_
*1126 _1105_
*1127 _1106_
*1128 _1107_
*1129 _1108_
*1130 _1109_
*1131 _1110_
*1132 _1111_
*1133 _1112_
*1134 _1113_
*1135 _1114_
*1136 _1115_
*1137 _1116_
*1138 _1117_
*1139 _1118_
*1140 _1119_
*1141 _1120_
*1142 _1121_
*1143 _1122_
*1144 _1123_
*1145 _1124_
*1146 _1125_
*1147 _1126_
*1148 _1127_
*1149 _1128_
*1150 _1129_
*1151 _1130_
*1152 _1131_
*1153 _1132_
*1154 _1133_
*1155 _1134_
*1156 _1135_
*1157 _1136_
*1158 _1137_
*1159 _1138_
*1160 _1139_
*1161 _1140_
*1162 _1141_
*1163 _1142_
*1164 _1143_
*1165 _1144_
*1166 _1145_
*1167 _1146_
*1168 _1147_
*1169 _1148_
*1170 _1149_
*1171 _1150_
*1172 _1151_
*1173 _1152_
*1174 _1153_
*1175 _1154_
*1176 _1155_
*1177 _1156_
*1178 _1157_
*1179 _1158_
*1180 _1159_
*1181 _1160_
*1182 _1161_
*1183 _1162_
*1184 _1163_
*1185 _1164_
*1186 _1165_
*1187 _1166_
*1188 _1167_
*1189 _1168_
*1190 _1169_
*1191 _1170_
*1192 _1171_
*1193 _1172_
*1194 _1173_
*1195 _1174_
*1196 _1175_
*1197 _1176_
*1198 _1177_
*1199 _1178_
*1200 _1179_
*1201 _1180_
*1202 _1181_
*1203 _1182_
*1204 _1183_
*1205 _1184_
*1206 _1185_
*1207 _1186_
*1208 _1187_
*1209 _1188_
*1210 _1189_
*1211 _1190_
*1212 _1191_
*1213 _1192_
*1214 _1193_
*1215 _1194_
*1216 _1195_
*1217 _1196_
*1218 _1197_
*1219 _1198_
*1220 _1199_
*1221 _1200_
*1222 _1201_
*1223 _1202_
*1224 _1203_
*1225 _1204_
*1226 _1205_
*1227 _1206_
*1228 _1207_
*1229 _1208_
*1230 _1209_
*1231 _1210_
*1232 _1211_
*1233 _1212_
*1234 _1213_
*1235 _1214_
*1236 _1215_
*1237 _1216_
*1238 _1217_
*1239 _1218_
*1240 _1219_
*1241 _1220_
*1242 _1221_
*1243 _1222_
*1244 _1223_
*1245 _1224_
*1246 _1225_
*1247 _1226_
*1248 _1227_
*1249 _1228_
*1250 _1229_
*1251 _1230_
*1252 _1231_
*1253 _1232_
*1254 _1233_
*1255 _1234_
*1256 _1235_
*1257 _1236_
*1258 _1237_
*1259 _1238_
*1260 _1239_
*1261 _1240_
*1262 _1241_
*1263 _1242_
*1264 _1243_
*1265 _1244_
*1266 _1245_
*1267 _1246_
*1268 _1247_
*1269 _1248_
*1270 _1249_
*1271 _1250_
*1272 _1251_
*1273 _1252_
*1274 _1253_
*1275 _1254_
*1276 _1255_
*1277 _1256_
*1278 _1257_
*1279 _1258_
*1280 _1259_
*1281 _1260_
*1282 _1261_
*1283 _1262_
*1284 _1263_
*1285 _1264_
*1286 _1265_
*1287 _1266_
*1288 _1267_
*1289 _1268_
*1290 _1269_
*1291 _1270_
*1292 _1271_
*1293 _1272_
*1294 _1273_
*1295 _1274_
*1296 _1275_
*1297 _1276_
*1298 _1277_
*1299 _1278_
*1300 _1279_
*1301 _1280_
*1302 _1281_
*1303 _1282_
*1304 _1283_
*1305 _1284_
*1306 _1285_
*1307 _1286_
*1308 _1287_
*1309 _1288_
*1310 _1289_
*1311 _1290_
*1312 _1291_
*1313 _1292_
*1314 _1293_
*1315 _1294_
*1316 _1295_
*1317 _1296_
*1318 _1297_
*1319 _1298_
*1320 _1299_
*1321 _1300_
*1322 _1301_
*1323 _1302_
*1324 _1303_
*1325 _1304_
*1326 _1305_
*1327 _1306_
*1328 _1307_
*1329 _1308_
*1330 _1309_
*1331 _1310_
*1332 _1311_
*1333 _1312_
*1334 _1313_
*1335 _1314_
*1336 _1315_
*1337 _1316_
*1338 _1317_
*1339 _1318_
*1340 _1319_
*1341 _1320_
*1342 _1321_
*1343 _1322_
*1344 _1323_
*1345 _1324_
*1346 _1325_
*1347 _1326_
*1348 _1327_
*1349 _1328_
*1350 _1329_
*1351 _1330_
*1352 _1331_
*1353 _1332_
*1354 _1333_
*1355 _1334_
*1356 _1335_
*1357 _1336_
*1358 _1337_
*1359 _1338_
*1360 _1339_
*1361 _1340_
*1362 _1341_
*1363 _1342_
*1364 _1343_
*1365 _1344_
*1366 _1345_
*1367 _1346_
*1368 _1347_
*1369 _1348_
*1370 _1349_
*1371 _1350_
*1372 _1351_
*1373 _1352_
*1374 _1353_
*1375 _1354_
*1376 _1355_
*1377 _1356_
*1378 _1357_
*1379 _1358_
*1380 _1359_
*1381 _1360_
*1382 _1361_
*1383 _1362_
*1384 _1363_
*1385 _1364_
*1386 _1365_
*1387 _1366_
*1388 _1367_
*1389 _1368_
*1390 _1369_
*1391 _1370_
*1392 _1371_
*1393 _1372_
*1394 _1373_
*1395 _1374_
*1396 _1375_
*1397 _1376_
*1398 _1377_
*1399 _1378_
*1400 _1379_
*1401 _1380_
*1402 _1381_
*1403 _1382_
*1404 _1383_
*1405 _1384_
*1406 _1385_
*1407 _1386_
*1408 _1387_
*1409 _1388_
*1410 _1389_
*1411 _1390_
*1412 _1391_
*1413 _1392_
*1414 _1393_
*1415 _1394_
*1416 _1395_
*1417 _1396_
*1418 _1397_
*1419 _1398_
*1420 _1399_
*1421 _1400_
*1422 _1401_
*1423 _1402_
*1424 _1403_
*1425 _1404_
*1426 _1405_
*1427 _1406_
*1428 _1407_
*1429 _1408_
*1430 _1409_
*1431 _1410_
*1432 _1411_
*1433 _1412_
*1434 _1413_
*1435 _1414_
*1436 _1415_
*1437 _1416_
*1438 _1417_
*1439 _1418_
*1440 _1419_
*1441 _1420_
*1442 _1421_
*1443 _1422_
*1444 _1423_
*1445 _1424_
*1446 _1425_
*1447 _1426_
*1448 _1427_
*1449 _1428_
*1450 _1429_
*1451 _1430_
*1452 _1431_
*1453 _1432_
*1454 _1433_
*1455 _1434_
*1456 _1435_
*1457 _1436_
*1458 _1437_
*1459 _1438_
*1460 _1439_
*1461 _1440_
*1462 _1441_
*1463 _1442_
*1464 _1443_
*1465 _1444_
*1466 _1445_
*1467 _1446_
*1468 _1447_
*1469 _1448_
*1470 _1449_
*1471 _1450_
*1472 _1451_
*1473 _1452_
*1474 _1453_
*1475 _1454_
*1476 _1455_
*1477 _1456_
*1478 _1457_
*1479 _1458_
*1480 _1459_
*1481 _1460_
*1482 _1461_
*1483 _1462_
*1484 _1463_
*1485 _1464_
*1486 _1465_
*1487 _1466_
*1488 _1467_
*1489 _1468_
*1490 _1469_
*1491 _1470_
*1492 _1471_
*1493 _1472_
*1494 _1473_
*1495 _1474_
*1496 _1475_
*1497 _1476_
*1498 _1477_
*1499 _1478_
*1500 _1479_
*1501 _1480_
*1502 _1481_
*1503 _1482_
*1504 _1483_
*1505 _1484_
*1506 _1485_
*1507 _1486_
*1508 _1487_
*1509 _1488_
*1510 _1489_
*1511 _1490_
*1512 _1491_
*1513 _1492_
*1514 _1493_
*1515 _1494_
*1516 _1495_
*1517 _1496_
*1518 _1497_
*1519 _1498_
*1520 _1499_
*1521 _1500_
*1522 _1501_
*1523 _1502_
*1524 _1503_
*1525 _1504_
*1526 _1505_
*1527 _1506_
*1528 _1507_
*1529 _1508_
*1530 _1509_
*1531 _1510_
*1532 _1511_
*1533 _1512_
*1534 _1513_
*1535 _1514_
*1536 _1515_
*1537 _1516_
*1538 _1517_
*1539 _1518_
*1540 _1519_
*1541 _1520_
*1542 _1521_
*1543 _1522_
*1544 _1523_
*1545 _1524_
*1546 _1525_
*1547 _1526_
*1548 _1527_
*1549 _1528_
*1550 _1529_
*1551 _1530_
*1552 _1531_
*1553 _1532_
*1554 _1533_
*1555 _1534_
*1556 _1535_
*1557 _1536_
*1558 _1537_
*1559 _1538_
*1560 _1539_
*1561 _1540_
*1562 _1541_
*1563 _1542_
*1564 _1543_
*1565 _1544_
*1566 _1545_
*1567 _1546_
*1568 _1547_
*1569 _1548_
*1570 _1549_
*1571 _1550_
*1572 _1551_
*1573 _1552_
*1574 _1553_
*1575 _1554_
*1576 _1555_
*1577 _1556_
*1578 _1557_
*1579 _1558_
*1580 _1559_
*1581 _1560_
*1582 _1561_
*1583 _1562_
*1584 _1563_
*1585 _1564_
*1586 _1565_
*1587 _1566_
*1588 _1567_
*1589 _1568_
*1590 _1569_
*1591 _1570_
*1592 _1571_
*1593 _1572_
*1594 _1573_
*1595 _1574_
*1596 _1575_
*1597 _1576_
*1598 _1577_
*1599 _1578_
*1600 _1579_
*1601 _1580_
*1602 _1581_
*1603 _1582_
*1604 _1583_
*1605 _1584_
*1606 _1585_
*1607 _1586_
*1608 _1587_
*1609 _1588_
*1610 _1589_
*1611 _1590_
*1612 _1591_
*1613 _1592_
*1614 _1593_
*1615 _1594_
*1616 _1595_
*1617 _1596_
*1618 _1597_
*1619 _1598_
*1620 _1599_
*1621 _1600_
*1622 _1601_
*1623 _1602_
*1624 _1603_
*1625 _1604_
*1626 _1605_
*1627 _1606_
*1628 _1607_
*1629 _1608_
*1630 _1609_
*1631 _1610_
*1632 _1611_
*1633 _1612_
*1634 _1613_
*1635 _1614_
*1636 _1615_
*1637 _1616_
*1638 _1617_
*1639 _1618_
*1640 _1619_
*1641 _1620_
*1642 _1621_
*1643 _1622_
*1644 _1623_
*1645 _1624_
*1646 _1625_
*1647 _1626_
*1648 _1627_
*1649 _1628_
*1650 _1629_
*1651 _1630_
*1652 _1631_
*1653 _1632_
*1654 _1633_
*1655 _1634_
*1656 _1635_
*1657 _1636_
*1658 _1637_
*1659 _1638_
*1660 _1639_
*1661 _1640_
*1662 _1641_
*1663 _1642_
*1664 _1643_
*1665 _1644_
*1666 _1645_
*1667 _1646_
*1668 _1647_
*1669 _1648_
*1670 _1649_
*1671 _1650_
*1672 _1651_
*1673 _1652_
*1674 _1653_
*1675 _1654_
*1676 _1655_
*1677 _1656_
*1678 _1657_
*1679 _1658_
*1680 _1659_
*1681 _1660_
*1682 _1661_
*1683 _1662_
*1684 _1663_
*1685 _1664_
*1686 _1665_
*1687 _1666_
*1688 _1667_
*1689 _1668_
*1690 _1669_
*1691 _1670_
*1692 _1671_
*1693 _1672_
*1694 _1673_
*1695 _1674_
*1696 _1675_
*1697 _1676_
*1698 _1677_
*1699 _1678_
*1700 _1679_
*1701 _1680_
*1702 _1681_
*1703 _1682_
*1704 _1683_
*1705 _1684_
*1706 _1685_
*1707 _1686_
*1708 _1687_
*1709 _1688_
*1710 _1689_
*1711 _1690_
*1712 _1691_
*1713 _1692_
*1714 _1693_
*1715 _1694_
*1716 _1695_
*1717 _1696_
*1718 _1697_
*1719 _1698_
*1720 _1699_
*1721 _1700_
*1722 _1701_
*1723 _1702_
*1724 _1703_
*1725 _1704_
*1726 _1705_
*1727 _1706_
*1728 _1707_
*1729 _1708_
*1730 _1709_
*1731 _1710_
*1732 _1711_
*1733 _1712_
*1734 _1713_
*1735 _1714_
*1736 _1715_
*1737 _1716_
*1738 _1717_
*1739 _1718_
*1740 _1719_
*1741 _1720_
*1742 _1721_
*1743 _1722_
*1744 _1723_
*1745 _1724_
*1746 _1725_
*1747 _1726_
*1748 _1727_
*1749 _1728_
*1750 _1729_
*1751 _1730_
*1752 _1731_
*1753 _1732_
*1754 _1733_
*1755 _1734_
*1756 _1735_
*1757 _1736_
*1758 _1737_
*1759 _1738_
*1760 _1739_
*1761 _1740_
*1762 _1741_
*1763 _1742_
*1764 _1743_
*1765 _1744_
*1766 _1745_
*1767 _1746_
*1768 _1747_
*1769 _1748_
*1770 _1749_
*1771 _1750_
*1772 _1751_
*1773 _1752_
*1774 _1753_
*1775 _1754_
*1776 _1755_
*1777 _1756_
*1778 _1757_
*1779 _1758_
*1780 _1759_
*1781 _1760_
*1782 _1761_
*1783 _1762_
*1784 _1763_
*1785 _1764_
*1786 _1765_
*1787 _1766_
*1788 _1767_
*1789 _1768_
*1790 _1769_
*1791 _1770_
*1792 _1771_
*1793 _1772_
*1794 _1773_
*1795 _1774_
*1796 _1775_
*1797 _1776_
*1798 _1777_
*1799 _1778_
*1800 _1779_
*1801 _1780_
*1802 _1781_
*1803 _1782_
*1804 _1783_
*1805 _1784_
*1806 _1785_
*1807 _1786_
*1808 _1787_
*1809 _1788_
*1810 _1789_
*1811 _1790_
*1812 _1791_
*1813 _1792_
*1814 _1793_
*1815 _1794_
*1816 _1795_
*1817 _1796_
*1818 _1797_
*1819 _1798_
*1820 _1799_
*1821 _1800_
*1822 _1801_
*1823 _1802_
*1824 _1803_
*1825 _1804_
*1826 _1805_
*1827 _1806_
*1828 _1807_
*1829 _1808_
*1830 _1809_
*1831 _1810_
*1832 _1811_
*1833 _1812_
*1834 _1813_
*1835 _1814_
*1836 _1815_
*1837 _1816_
*1838 _1817_
*1839 _1818_
*1840 _1819_
*1841 _1820_
*1842 _1821_
*1843 _1822_
*1844 _1823_
*1845 _1824_
*1846 _1825_
*1847 _1826_
*1848 _1827_
*1849 _1828_
*1850 _1829_
*1851 _1830_
*1852 _1831_
*1853 _1832_
*1854 _1833_
*1855 _1834_
*1856 _1835_
*1857 _1836_
*1858 _1837_
*1859 _1838_
*1860 _1839_
*1861 _1840_
*1862 _1841_
*1863 _1842_
*1864 _1843_
*1865 _1844_
*1866 _1845_
*1867 _1846_
*1868 _1847_
*1869 _1848_
*1870 _1849_
*1871 _1850_
*1872 _1851_
*1873 _1852_
*1874 _1853_
*1875 _1854_
*1876 _1855_
*1877 _1856_
*1878 _1857_
*1879 _1858_
*1880 _1859_
*1881 _1860_
*1882 _1861_
*1883 _1862_
*1884 _1863_
*1885 _1864_
*1886 _1865_
*1887 _1866_
*1888 _1867_
*1889 _1868_
*1890 _1869_
*1891 _1870_
*1892 _1871_
*1893 _1872_
*1894 _1873_
*1895 _1874_
*1896 _1875_
*1897 _1876_
*1898 _1877_
*1899 _1878_
*1900 _1879_
*1901 _1880_
*1902 _1881_
*1903 _1882_
*1904 _1883_
*1905 _1884_
*1906 _1885_
*1907 _1886_
*1908 _1887_
*1909 _1888_
*1910 _1889_
*1911 _1890_
*1912 _1891_
*1913 _1892_
*1914 _1893_
*1915 _1894_
*1916 _1895_
*1917 _1896_
*1918 _1897_
*1919 _1898_
*1920 _1899_
*1921 _1900_
*1922 _1901_
*1923 _1902_
*1924 _1903_
*1925 _1904_
*1926 _1905_
*1927 _1906_
*1928 _1907_
*1929 _1908_
*1930 _1909_
*1931 _1910_
*1932 _1911_
*1933 _1912_
*1934 _1913_
*1935 _1914_
*1936 _1915_
*1937 _1916_
*1938 _1917_
*1939 _1918_
*1940 _1919_
*1941 _1920_
*1942 _1921_
*1943 _1922_
*1944 _1923_
*1945 _1924_
*1946 _1925_
*1947 _1926_
*1948 _1927_
*1949 _1928_
*1950 _1929_
*1951 _1930_
*1952 _1931_
*1953 _1932_
*1954 _1933_
*1955 _1934_
*1956 _1935_
*1957 _1936_
*1958 _1937_
*1959 _1938_
*1960 _1939_
*1961 _1940_
*1962 _1941_
*1963 _1942_
*1964 _1943_
*1965 _1944_
*1966 _1945_
*1967 _1946_
*1968 _1947_
*1969 _1948_
*1970 _1949_
*1971 _1950_
*1972 _1951_
*1973 _1952_
*1974 _1953_
*1975 _1954_
*1976 _1955_
*1977 _1956_
*1978 _1957_
*1979 _1958_
*1980 _1959_
*1981 _1960_
*1982 _1961_
*1983 _1962_
*1984 _1963_
*1985 _1964_
*1986 _1965_
*1987 _1966_
*1988 _1967_
*1989 _1968_
*1990 _1969_
*1991 _1970_
*1992 _1971_
*1993 _1972_
*1994 _1973_
*1995 _1974_
*1996 _1975_
*1997 _1976_
*1998 _1977_
*1999 _1978_
*2000 _1979_
*2001 _1980_
*2002 _1981_
*2003 _1982_
*2004 _1983_
*2005 _1984_
*2006 _1985_
*2007 _1986_
*2008 _1987_
*2009 _1988_
*2010 _1989_
*2011 _1990_
*2012 _1991_
*2013 _1992_
*2014 _1993_
*2015 _1994_
*2016 _1995_
*2017 _1996_
*2018 _1997_
*2019 _1998_
*2020 _1999_
*2021 _2000_
*2022 _2001_
*2023 _2002_
*2024 _2003_
*2025 _2004_
*2026 _2005_
*2027 _2006_
*2028 _2007_
*2029 _2008_
*2030 _2009_
*2031 _2010_
*2032 _2011_
*2033 _2012_
*2034 _2013_
*2035 _2014_
*2036 _2015_
*2037 _2016_
*2038 _2017_
*2039 _2018_
*2040 _2019_
*2041 _2020_
*2042 _2021_
*2043 _2022_
*2044 _2023_
*2045 _2024_
*2046 _2025_
*2047 _2026_
*2048 _2027_
*2049 _2028_
*2050 clknet_0_clk
*2051 clknet_2_0__leaf_clk
*2052 clknet_2_1__leaf_clk
*2053 clknet_2_2__leaf_clk
*2054 clknet_2_3__leaf_clk
*2055 clknet_leaf_0_clk
*2056 clknet_leaf_10_clk
*2057 clknet_leaf_11_clk
*2058 clknet_leaf_13_clk
*2059 clknet_leaf_14_clk
*2060 clknet_leaf_15_clk
*2061 clknet_leaf_16_clk
*2062 clknet_leaf_17_clk
*2063 clknet_leaf_18_clk
*2064 clknet_leaf_19_clk
*2065 clknet_leaf_1_clk
*2066 clknet_leaf_20_clk
*2067 clknet_leaf_21_clk
*2068 clknet_leaf_22_clk
*2069 clknet_leaf_23_clk
*2070 clknet_leaf_24_clk
*2071 clknet_leaf_25_clk
*2072 clknet_leaf_26_clk
*2073 clknet_leaf_27_clk
*2074 clknet_leaf_28_clk
*2075 clknet_leaf_29_clk
*2076 clknet_leaf_2_clk
*2077 clknet_leaf_30_clk
*2078 clknet_leaf_31_clk
*2079 clknet_leaf_32_clk
*2080 clknet_leaf_33_clk
*2081 clknet_leaf_34_clk
*2082 clknet_leaf_35_clk
*2083 clknet_leaf_36_clk
*2084 clknet_leaf_37_clk
*2085 clknet_leaf_38_clk
*2086 clknet_leaf_3_clk
*2087 clknet_leaf_4_clk
*2088 clknet_leaf_5_clk
*2089 clknet_leaf_6_clk
*2090 clknet_leaf_7_clk
*2091 clknet_leaf_8_clk
*2092 clknet_leaf_9_clk
*2093 d1\.count\[0\]
*2094 d1\.count\[1\]
*2095 d1\.count\[2\]
*2096 d1\.count\[3\]
*2097 d1\.count\[4\]
*2098 d1\.count\[5\]
*2099 d1\.count\[6\]
*2100 d1\.count\[7\]
*2101 d1\.count\[8\]
*2102 d1\.count\[9\]
*2103 d1\.nxt_count\[0\]
*2104 d1\.nxt_count\[1\]
*2105 d1\.nxt_count\[2\]
*2106 d1\.nxt_count\[3\]
*2107 d1\.nxt_count\[4\]
*2108 d1\.nxt_count\[5\]
*2109 d1\.nxt_count\[6\]
*2110 d1\.nxt_count\[7\]
*2111 d1\.nxt_count\[8\]
*2112 d1\.nxt_count\[9\]
*2113 d1\.oct_dwn\[0\]
*2114 d1\.oct_dwn\[1\]
*2115 d1\.saw_temp\[0\]
*2116 d1\.saw_temp\[1\]
*2117 d1\.saw_temp\[2\]
*2118 d1\.saw_temp\[3\]
*2119 d1\.saw_temp\[4\]
*2120 d1\.saw_temp\[5\]
*2121 d1\.saw_temp\[6\]
*2122 d1\.saw_temp\[7\]
*2123 d10\.count\[0\]
*2124 d10\.count\[1\]
*2125 d10\.count\[2\]
*2126 d10\.count\[3\]
*2127 d10\.count\[4\]
*2128 d10\.count\[5\]
*2129 d10\.count\[6\]
*2130 d10\.count\[7\]
*2131 d10\.count\[8\]
*2132 d10\.count\[9\]
*2133 d10\.nxt_count\[0\]
*2134 d10\.nxt_count\[1\]
*2135 d10\.nxt_count\[2\]
*2136 d10\.nxt_count\[3\]
*2137 d10\.nxt_count\[4\]
*2138 d10\.nxt_count\[5\]
*2139 d10\.nxt_count\[6\]
*2140 d10\.nxt_count\[7\]
*2141 d10\.nxt_count\[8\]
*2142 d10\.saw_temp\[0\]
*2143 d10\.saw_temp\[1\]
*2144 d10\.saw_temp\[2\]
*2145 d10\.saw_temp\[3\]
*2146 d10\.saw_temp\[4\]
*2147 d10\.saw_temp\[5\]
*2148 d10\.saw_temp\[6\]
*2149 d10\.saw_temp\[7\]
*2150 d11\.count\[0\]
*2151 d11\.count\[1\]
*2152 d11\.count\[2\]
*2153 d11\.count\[3\]
*2154 d11\.count\[4\]
*2155 d11\.count\[5\]
*2156 d11\.count\[6\]
*2157 d11\.count\[7\]
*2158 d11\.count\[8\]
*2159 d11\.count\[9\]
*2160 d11\.nxt_count\[0\]
*2161 d11\.nxt_count\[1\]
*2162 d11\.nxt_count\[2\]
*2163 d11\.nxt_count\[3\]
*2164 d11\.nxt_count\[4\]
*2165 d11\.nxt_count\[5\]
*2166 d11\.nxt_count\[6\]
*2167 d11\.nxt_count\[7\]
*2168 d11\.nxt_count\[8\]
*2169 d11\.saw_temp\[0\]
*2170 d11\.saw_temp\[1\]
*2171 d11\.saw_temp\[2\]
*2172 d11\.saw_temp\[3\]
*2173 d11\.saw_temp\[4\]
*2174 d11\.saw_temp\[5\]
*2175 d11\.saw_temp\[6\]
*2176 d11\.saw_temp\[7\]
*2177 d12\.count\[0\]
*2178 d12\.count\[1\]
*2179 d12\.count\[2\]
*2180 d12\.count\[3\]
*2181 d12\.count\[4\]
*2182 d12\.count\[5\]
*2183 d12\.count\[6\]
*2184 d12\.count\[7\]
*2185 d12\.count\[8\]
*2186 d12\.count\[9\]
*2187 d12\.nxt_count\[0\]
*2188 d12\.nxt_count\[1\]
*2189 d12\.nxt_count\[2\]
*2190 d12\.nxt_count\[3\]
*2191 d12\.nxt_count\[4\]
*2192 d12\.nxt_count\[5\]
*2193 d12\.nxt_count\[6\]
*2194 d12\.nxt_count\[7\]
*2195 d12\.nxt_count\[8\]
*2196 d12\.saw_temp\[0\]
*2197 d12\.saw_temp\[1\]
*2198 d12\.saw_temp\[2\]
*2199 d12\.saw_temp\[3\]
*2200 d12\.saw_temp\[4\]
*2201 d12\.saw_temp\[5\]
*2202 d12\.saw_temp\[6\]
*2203 d12\.saw_temp\[7\]
*2204 d13\.count\[0\]
*2205 d13\.count\[1\]
*2206 d13\.count\[2\]
*2207 d13\.count\[3\]
*2208 d13\.count\[4\]
*2209 d13\.count\[5\]
*2210 d13\.count\[6\]
*2211 d13\.count\[7\]
*2212 d13\.count\[8\]
*2213 d13\.count\[9\]
*2214 d13\.nxt_count\[0\]
*2215 d13\.nxt_count\[1\]
*2216 d13\.nxt_count\[2\]
*2217 d13\.nxt_count\[3\]
*2218 d13\.nxt_count\[4\]
*2219 d13\.nxt_count\[5\]
*2220 d13\.nxt_count\[6\]
*2221 d13\.nxt_count\[7\]
*2222 d13\.nxt_count\[8\]
*2223 d13\.saw_temp\[0\]