*SPEF "ieee 1481-1999"
*DESIGN "synth"
*DATE "11:11:11 Fri 11 11, 1111"
*VENDOR "OpenRCX"
*PROGRAM "Parallel Extraction"
*VERSION "1.0"
*DESIGN_FLOW "NAME_SCOPE LOCAL" "PIN_CAP NONE"
*DIVIDER /
*DELIMITER :
*BUS_DELIMITER []
*T_UNIT 1 NS
*C_UNIT 1 PF
*R_UNIT 1 OHM
*L_UNIT 1 HENRY

*NAME_MAP
*3 clk
*4 en
*5 keypad_i[0]
*6 keypad_i[10]
*7 keypad_i[11]
*8 keypad_i[12]
*9 keypad_i[13]
*10 keypad_i[14]
*11 keypad_i[1]
*12 keypad_i[2]
*13 keypad_i[3]
*14 keypad_i[4]
*15 keypad_i[5]
*16 keypad_i[6]
*17 keypad_i[7]
*18 keypad_i[8]
*19 keypad_i[9]
*20 n_rst
*21 pwm_o
*22 sound_series[0]
*23 sound_series[1]
*24 sound_series[2]
*25 sound_series[3]
*26 SS_FSM\.count\[0\]
*27 SS_FSM\.count\[1\]
*28 SS_FSM\.count\[2\]
*29 SS_FSM\.count\[3\]
*30 SS_FSM\.count\[4\]
*31 SS_FSM\.count\[5\]
*32 SS_FSM\.count\[6\]
*33 SS_FSM\.count\[7\]
*34 SS_FSM\.count\[8\]
*35 SS_FSM\.next_sound\[0\]
*36 SS_FSM\.next_sound\[1\]
*37 SS_FSM\.sound\[0\]
*38 SS_FSM\.sound\[1\]
*39 _0000_
*40 _0001_
*41 _0002_
*42 _0003_
*43 _0004_
*44 _0005_
*45 _0006_
*46 _0007_
*47 _0008_
*48 _0009_
*49 _0010_
*50 _0011_
*51 _0012_
*52 _0013_
*53 _0014_
*54 _0015_
*55 _0016_
*56 _0017_
*57 _0018_
*58 _0019_
*59 _0020_
*60 _0021_
*61 _0022_
*62 _0023_
*63 _0024_
*64 _0025_
*65 _0026_
*66 _0027_
*67 _0028_
*68 _0029_
*69 _0030_
*70 _0031_
*71 _0032_
*72 _0033_
*73 _0034_
*74 _0035_
*75 _0036_
*76 _0037_
*77 _0038_
*78 _0039_
*79 _0040_
*80 _0041_
*81 _0042_
*82 _0043_
*83 _0044_
*84 _0045_
*85 _0046_
*86 _0047_
*87 _0048_
*88 _0049_
*89 _0050_
*90 _0051_
*91 _0052_
*92 _0053_
*93 _0054_
*94 _0055_
*95 _0056_
*96 _0057_
*97 _0058_
*98 _0059_
*99 _0060_
*100 _0061_
*101 _0062_
*102 _0063_
*103 _0064_
*104 _0065_
*105 _0066_
*106 _0067_
*107 _0068_
*108 _0069_
*109 _0070_
*110 _0071_
*111 _0072_
*112 _0073_
*113 _0074_
*114 _0075_
*115 _0076_
*116 _0077_
*117 _0078_
*118 _0079_
*119 _0080_
*120 _0081_
*121 _0082_
*122 _0083_
*123 _0084_
*124 _0085_
*125 _0086_
*126 _0087_
*127 _0088_
*128 _0089_
*129 _0090_
*130 _0091_
*131 _0092_
*132 _0093_
*133 _0094_
*134 _0095_
*135 _0096_
*136 _0097_
*137 _0098_
*138 _0099_
*139 _0100_
*140 _0101_
*141 _0102_
*142 _0103_
*143 _0104_
*144 _0105_
*145 _0106_
*146 _0107_
*147 _0108_
*148 _0109_
*149 _0110_
*150 _0111_
*151 _0112_
*152 _0113_
*153 _0114_
*154 _0115_
*155 _0116_
*156 _0117_
*157 _0118_
*158 _0119_
*159 _0120_
*160 _0121_
*161 _0122_
*162 _0123_
*163 _0124_
*164 _0125_
*165 _0126_
*166 _0127_
*167 _0128_
*168 _0129_
*169 _0130_
*170 _0131_
*171 _0132_
*172 _0133_
*173 _0134_
*174 _0135_
*175 _0136_
*176 _0137_
*177 _0138_
*178 _0139_
*179 _0140_
*180 _0141_
*181 _0142_
*182 _0143_
*183 _0144_
*184 _0145_
*185 _0146_
*186 _0147_
*187 _0148_
*188 _0149_
*189 _0150_
*190 _0151_
*191 _0152_
*192 _0153_
*193 _0154_
*194 _0155_
*195 _0156_
*196 _0157_
*197 _0158_
*198 _0159_
*199 _0160_
*200 _0161_
*201 _0162_
*202 _0163_
*203 _0164_
*204 _0165_
*205 _0166_
*206 _0167_
*207 _0168_
*208 _0169_
*209 _0170_
*210 _0171_
*211 _0172_
*212 _0173_
*213 _0174_
*214 _0175_
*215 _0176_
*216 _0177_
*217 _0178_
*218 _0179_
*219 _0180_
*220 _0181_
*221 _0182_
*222 _0183_
*223 _0184_
*224 _0185_
*225 _0186_
*226 _0187_
*227 _0188_
*228 _0189_
*229 _0190_
*230 _0191_
*231 _0192_
*232 _0193_
*233 _0194_
*234 _0195_
*235 _0196_
*236 _0197_
*237 _0198_
*238 _0199_
*239 _0200_
*240 _0201_
*241 _0202_
*242 _0203_
*243 _0204_
*244 _0205_
*245 _0206_
*246 _0207_
*247 _0208_
*248 _0209_
*249 _0210_
*250 _0211_
*251 _0212_
*252 _0213_
*253 _0214_
*254 _0215_
*255 _0216_
*256 _0217_
*257 _0218_
*258 _0219_
*259 _0220_
*260 _0221_
*261 _0222_
*262 _0223_
*263 _0224_
*264 _0225_
*265 _0226_
*266 _0227_
*267 _0228_
*268 _0229_
*269 _0230_
*270 _0231_
*271 _0232_
*272 _0233_
*273 _0234_
*274 _0235_
*275 _0236_
*276 _0237_
*277 _0238_
*278 _0239_
*279 _0240_
*280 _0241_
*281 _0242_
*282 _0243_
*283 _0244_
*284 _0245_
*285 _0246_
*286 _0247_
*287 _0248_
*288 _0249_
*289 _0250_
*290 _0251_
*291 _0252_
*292 _0253_
*293 _0254_
*294 _0255_
*295 _0256_
*296 _0257_
*297 _0258_
*298 _0259_
*299 _0260_
*300 _0261_
*301 _0262_
*302 _0263_
*303 _0264_
*304 _0265_
*305 _0266_
*306 _0267_
*307 _0268_
*308 _0269_
*309 _0270_
*310 _0271_
*311 _0272_
*312 _0273_
*313 _0274_
*314 _0275_
*315 _0276_
*316 _0277_
*317 _0278_
*318 _0279_
*319 _0280_
*320 _0281_
*321 _0282_
*322 _0283_
*323 _0284_
*324 _0285_
*325 _0286_
*326 _0287_
*327 _0288_
*328 _0289_
*329 _0290_
*330 _0291_
*331 _0292_
*332 _0293_
*333 _0294_
*334 _0295_
*335 _0296_
*336 _0297_
*337 _0298_
*338 _0299_
*339 _0300_
*340 _0301_
*341 _0302_
*342 _0303_
*343 _0304_
*344 _0305_
*345 _0306_
*346 _0307_
*347 _0308_
*348 _0309_
*349 _0310_
*350 _0311_
*351 _0312_
*352 _0313_
*353 _0314_
*354 _0315_
*355 _0316_
*356 _0317_
*357 _0318_
*358 _0319_
*359 _0320_
*360 _0321_
*361 _0322_
*362 _0323_
*363 _0324_
*364 _0325_
*365 _0326_
*366 _0327_
*367 _0328_
*368 _0329_
*369 _0330_
*370 _0331_
*371 _0332_
*372 _0333_
*373 _0334_
*374 _0335_
*375 _0336_
*376 _0337_
*377 _0338_
*378 _0339_
*379 _0340_
*380 _0341_
*381 _0342_
*382 _0343_
*383 _0344_
*384 _0345_
*385 _0346_
*386 _0347_
*387 _0348_
*388 _0349_
*389 _0350_
*390 _0351_
*391 _0352_
*392 _0353_
*393 _0354_
*394 _0355_
*395 _0356_
*396 _0357_
*397 _0358_
*398 _0359_
*399 _0360_
*400 _0361_
*401 _0362_
*402 _0363_
*403 _0364_
*404 _0365_
*405 _0366_
*406 _0367_
*407 _0368_
*408 _0369_
*409 _0370_
*410 _0371_
*411 _0372_
*412 _0373_
*413 _0374_
*414 _0375_
*415 _0376_
*416 _0377_
*417 _0378_
*418 _0379_
*419 _0380_
*420 _0381_
*421 _0382_
*422 _0383_
*423 _0384_
*424 _0385_
*425 _0386_
*426 _0387_
*427 _0388_
*428 _0389_
*429 _0390_
*430 _0391_
*431 _0392_
*432 _0393_
*433 _0394_
*434 _0395_
*435 _0396_
*436 _0397_
*437 _0398_
*438 _0399_
*439 _0400_
*440 _0401_
*441 _0402_
*442 _0403_
*443 _0404_
*444 _0405_
*445 _0406_
*446 _0407_
*447 _0408_
*448 _0409_
*449 _0410_
*450 _0411_
*451 _0412_
*452 _0413_
*453 _0414_
*454 _0415_
*455 _0416_
*456 _0417_
*457 _0418_
*458 _0419_
*459 _0420_
*460 _0421_
*461 _0422_
*462 _0423_
*463 _0424_
*464 _0425_
*465 _0426_
*466 _0427_
*467 _0428_
*468 _0429_
*469 _0430_
*470 _0431_
*471 _0432_
*472 _0433_
*473 _0434_
*474 _0435_
*475 _0436_
*476 _0437_
*477 _0438_
*478 _0439_
*479 _0440_
*480 _0441_
*481 _0442_
*482 _0443_
*483 _0444_
*484 _0445_
*485 _0446_
*486 _0447_
*487 _0448_
*488 _0449_
*489 _0450_
*490 _0451_
*491 _0452_
*492 _0453_
*493 _0454_
*494 _0455_
*495 _0456_
*496 _0457_
*497 _0458_
*498 _0459_
*499 _0460_
*500 _0461_
*501 _0462_
*502 _0463_
*503 _0464_
*504 _0465_
*505 _0466_
*506 _0467_
*507 _0468_
*508 _0469_
*509 _0470_
*510 _0471_
*511 _0472_
*512 _0473_
*513 _0474_
*514 _0475_
*515 _0476_
*516 _0477_
*517 _0478_
*518 _0479_
*519 _0480_
*520 _0481_
*521 _0482_
*522 _0483_
*523 _0484_
*524 _0485_
*525 _0486_
*526 _0487_
*527 _0488_
*528 _0489_
*529 _0490_
*530 _0491_
*531 _0492_
*532 _0493_
*533 _0494_
*534 _0495_
*535 _0496_
*536 _0497_
*537 _0498_
*538 _0499_
*539 _0500_
*540 _0501_
*541 _0502_
*542 _0503_
*543 _0504_
*544 _0505_
*545 _0506_
*546 _0507_
*547 _0508_
*548 _0509_
*549 _0510_
*550 _0511_
*551 _0512_
*552 _0513_
*553 _0514_
*554 _0515_
*555 _0516_
*556 _0517_
*557 _0518_
*558 _0519_
*559 _0520_
*560 _0521_
*561 _0522_
*562 _0523_
*563 _0524_
*564 _0525_
*565 _0526_
*566 _0527_
*567 _0528_
*568 _0529_
*569 _0530_
*570 _0531_
*571 _0532_
*572 _0533_
*573 _0534_
*574 _0535_
*575 _0536_
*576 _0537_
*577 _0538_
*578 _0539_
*579 _0540_
*580 _0541_
*581 _0542_
*582 _0543_
*583 _0544_
*584 _0545_
*585 _0546_
*586 _0547_
*587 _0548_
*588 _0549_
*589 _0550_
*590 _0551_
*591 _0552_
*592 _0553_
*593 _0554_
*594 _0555_
*595 _0556_
*596 _0557_
*597 _0558_
*598 _0559_
*599 _0560_
*600 _0561_
*601 _0562_
*602 _0563_
*603 _0564_
*604 _0565_
*605 _0566_
*606 _0567_
*607 _0568_
*608 _0569_
*609 _0570_
*610 _0571_
*611 _0572_
*612 _0573_
*613 _0574_
*614 _0575_
*615 _0576_
*616 _0577_
*617 _0578_
*618 _0579_
*619 _0580_
*620 _0581_
*621 _0582_
*622 _0583_
*623 _0584_
*624 _0585_
*625 _0586_
*626 _0587_
*627 _0588_
*628 _0589_
*629 _0590_
*630 _0591_
*631 _0592_
*632 _0593_
*633 _0594_
*634 _0595_
*635 _0596_
*636 _0597_
*637 _0598_
*638 _0599_
*639 _0600_
*640 _0601_
*641 _0602_
*642 _0603_
*643 _0604_
*644 _0605_
*645 _0606_
*646 _0607_
*647 _0608_
*648 _0609_
*649 _0610_
*650 _0611_
*651 _0612_
*652 _0613_
*653 _0614_
*654 _0615_
*655 _0616_
*656 _0617_
*657 _0618_
*658 _0619_
*659 _0620_
*660 _0621_
*661 _0622_
*662 _0623_
*663 _0624_
*664 _0625_
*665 _0626_
*666 _0627_
*667 _0628_
*668 _0629_
*669 _0630_
*670 _0631_
*671 _0632_
*672 _0633_
*673 _0634_
*674 _0635_
*675 _0636_
*676 _0637_
*677 _0638_
*678 _0639_
*679 _0640_
*680 _0641_
*681 _0642_
*682 _0643_
*683 _0644_
*684 _0645_
*685 _0646_
*686 _0647_
*687 _0648_
*688 _0649_
*689 _0650_
*690 _0651_
*691 _0652_
*692 _0653_
*693 _0654_
*694 _0655_
*695 _0656_
*696 _0657_
*697 _0658_
*698 _0659_
*699 _0660_
*700 _0661_
*701 _0662_
*702 _0663_
*703 _0664_
*704 _0665_
*705 _0666_
*706 _0667_
*707 _0668_
*708 _0669_
*709 _0670_
*710 _0671_
*711 _0672_
*712 _0673_
*713 _0674_
*714 _0675_
*715 _0676_
*716 _0677_
*717 _0678_
*718 _0679_
*719 _0680_
*720 _0681_
*721 _0682_
*722 _0683_
*723 _0684_
*724 _0685_
*725 _0686_
*726 _0687_
*727 _0688_
*728 _0689_
*729 _0690_
*730 _0691_
*731 _0692_
*732 _0693_
*733 _0694_
*734 _0695_
*735 _0696_
*736 _0697_
*737 _0698_
*738 _0699_
*739 _0700_
*740 _0701_
*741 _0702_
*742 _0703_
*743 _0704_
*744 _0705_
*745 _0706_
*746 _0707_
*747 _0708_
*748 _0709_
*749 _0710_
*750 _0711_
*751 _0712_
*752 _0713_
*753 _0714_
*754 _0715_
*755 _0716_
*756 _0717_
*757 _0718_
*758 _0719_
*759 _0720_
*760 _0721_
*761 _0722_
*762 _0723_
*763 _0724_
*764 _0725_
*765 _0726_
*766 _0727_
*767 _0728_
*768 _0729_
*769 _0730_
*770 _0731_
*771 _0732_
*772 _0733_
*773 _0734_
*774 _0735_
*775 _0736_
*776 _0737_
*777 _0738_
*778 _0739_
*779 _0740_
*780 _0741_
*781 _0742_
*782 _0743_
*783 _0744_
*784 _0745_
*785 _0746_
*786 _0747_
*787 _0748_
*788 _0749_
*789 _0750_
*790 _0751_
*791 _0752_
*792 _0753_
*793 _0754_
*794 _0755_
*795 _0756_
*796 _0757_
*797 _0758_
*798 _0759_
*799 _0760_
*800 _0761_
*801 _0762_
*802 _0763_
*803 _0764_
*804 _0765_
*805 _0766_
*806 _0767_
*807 _0768_
*808 _0769_
*809 _0770_
*810 _0771_
*811 _0772_
*812 _0773_
*813 _0774_
*814 _0775_
*815 _0776_
*816 _0777_
*817 _0778_
*818 clk8\.count\[0\]
*819 clk8\.count\[10\]
*820 clk8\.count\[11\]
*821 clk8\.count\[12\]
*822 clk8\.count\[13\]
*823 clk8\.count\[14\]
*824 clk8\.count\[15\]
*825 clk8\.count\[16\]
*826 clk8\.count\[17\]
*827 clk8\.count\[18\]
*828 clk8\.count\[19\]
*829 clk8\.count\[1\]
*830 clk8\.count\[20\]
*831 clk8\.count\[2\]
*832 clk8\.count\[3\]
*833 clk8\.count\[4\]
*834 clk8\.count\[5\]
*835 clk8\.count\[6\]
*836 clk8\.count\[7\]
*837 clk8\.count\[8\]
*838 clk8\.count\[9\]
*839 clk8\.next_count\[0\]
*840 clk8\.next_count\[10\]
*841 clk8\.next_count\[11\]
*842 clk8\.next_count\[12\]
*843 clk8\.next_count\[13\]
*844 clk8\.next_count\[14\]
*845 clk8\.next_count\[15\]
*846 clk8\.next_count\[16\]
*847 clk8\.next_count\[17\]
*848 clk8\.next_count\[18\]
*849 clk8\.next_count\[19\]
*850 clk8\.next_count\[1\]
*851 clk8\.next_count\[20\]
*852 clk8\.next_count\[2\]
*853 clk8\.next_count\[3\]
*854 clk8\.next_count\[4\]
*855 clk8\.next_count\[5\]
*856 clk8\.next_count\[6\]
*857 clk8\.next_count\[7\]
*858 clk8\.next_count\[8\]
*859 clk8\.next_count\[9\]
*860 clk_div\.count\[0\]
*861 clk_div\.count\[1\]
*862 clk_div\.count\[2\]
*863 clk_div\.count\[3\]
*864 clk_div\.count\[4\]
*865 clk_div\.count\[5\]
*866 clk_div\.count\[6\]
*867 clk_div\.count\[7\]
*868 clk_div\.next_count\[0\]
*869 clk_div\.next_count\[1\]
*870 clk_div\.next_count\[2\]
*871 clk_div\.next_count\[3\]
*872 clk_div\.next_count\[4\]
*873 clk_div\.next_count\[5\]
*874 clk_div\.next_count\[6\]
*875 clk_div\.next_count\[7\]
*876 clknet_0_clk
*877 clknet_4_0_0_clk
*878 clknet_4_10_0_clk
*879 clknet_4_11_0_clk
*880 clknet_4_12_0_clk
*881 clknet_4_13_0_clk
*882 clknet_4_14_0_clk
*883 clknet_4_15_0_clk
*884 clknet_4_1_0_clk
*885 clknet_4_2_0_clk
*886 clknet_4_3_0_clk
*887 clknet_4_4_0_clk
*888 clknet_4_5_0_clk
*889 clknet_4_6_0_clk
*890 clknet_4_7_0_clk
*891 clknet_4_8_0_clk
*892 clknet_4_9_0_clk
*893 kp_encoder\.last_mk
*894 kp_encoder\.last_sk
*895 kp_encoder\.q\[0\]
*896 kp_encoder\.q\[10\]
*897 kp_encoder\.q\[11\]
*898 kp_encoder\.q\[12\]
*899 kp_encoder\.q\[13\]
*900 kp_encoder\.q\[14\]
*901 kp_encoder\.q\[1\]
*902 kp_encoder\.q\[2\]
*903 kp_encoder\.q\[3\]
*904 kp_encoder\.q\[4\]
*905 kp_encoder\.q\[5\]
*906 kp_encoder\.q\[6\]
*907 kp_encoder\.q\[7\]
*908 kp_encoder\.q\[8\]
*909 kp_encoder\.q\[9\]
*910 kp_encoder\.sync_out\[0\]
*911 kp_encoder\.sync_out\[10\]
*912 kp_encoder\.sync_out\[11\]
*913 kp_encoder\.sync_out\[12\]
*914 kp_encoder\.sync_out\[13\]
*915 kp_encoder\.sync_out\[14\]
*916 kp_encoder\.sync_out\[1\]
*917 kp_encoder\.sync_out\[2\]
*918 kp_encoder\.sync_out\[3\]
*919 kp_encoder\.sync_out\[4\]
*920 kp_encoder\.sync_out\[5\]
*921 kp_encoder\.sync_out\[6\]
*922 kp_encoder\.sync_out\[7\]
*923 kp_encoder\.sync_out\[8\]
*924 kp_encoder\.sync_out\[9\]
*925 mode_FSM\.mode\[0\]
*926 mode_FSM\.mode\[1\]
*927 net1
*928 net10
*929 net100
*930 net101
*931 net102
*932 net103
*933 net104
*934 net105
*935 net106
*936 net107
*937 net108
*938 net109
*939 net11
*940 net110
*941 net111
*942 net112
*943 net113
*944 net114
*945 net115
*946 net116
*947 net117
*948 net118
*949 net119
*950 net12
*951 net120
*952 net121
*953 net122
*954 net123
*955 net124
*956 net125
*957 net126
*958 net127
*959 net128
*960 net129
*961 net13
*962 net130
*963 net14
*964 net15
*965 net16
*966 net17
*967 net18
*968 net19
*969 net2
*970 net20
*971 net21
*972 net22
*973 net23
*974 net24
*975 net25
*976 net26
*977 net27
*978 net28
*979 net29
*980 net3
*981 net30
*982 net31
*983 net32
*984 net33
*985 net34
*986 net35
*987 net36
*988 net37
*989 net38
*990 net39
*991 net4
*992 net40
*993 net41
*994 net42
*995 net43
*996 net44
*997 net45
*998 net46
*999 net47
*1000 net48
*1001 net49
*1002 net5
*1003 net50
*1004 net51
*1005 net52
*1006 net53
*1007 net54
*1008 net55
*1009 net56
*1010 net57
*1011 net58
*1012 net59
*1013 net6
*1014 net60
*1015 net61
*1016 net62
*1017 net63
*1018 net64
*1019 net65
*1020 net66
*1021 net67
*1022 net68
*1023 net69
*1024 net7
*1025 net70
*1026 net71
*1027 net72
*1028 net73
*1029 net74
*1030 net75
*1031 net76
*1032 net77
*1033 net78
*1034 net79
*1035 net8
*1036 net80
*1037 net81
*1038 net82
*1039 net83
*1040 net84
*1041 net85
*1042 net86
*1043 net87
*1044 net88
*1045 net89
*1046 net9
*1047 net90
*1048 net91
*1049 net92
*1050 net93
*1051 net94
*1052 net95
*1053 net96
*1054 net97
*1055 net98
*1056 net99
*1057 osc\.count\[0\]
*1058 osc\.count\[10\]
*1059 osc\.count\[11\]
*1060 osc\.count\[12\]
*1061 osc\.count\[13\]
*1062 osc\.count\[14\]
*1063 osc\.count\[15\]
*1064 osc\.count\[1\]
*1065 osc\.count\[2\]
*1066 osc\.count\[3\]
*1067 osc\.count\[4\]
*1068 osc\.count\[5\]
*1069 osc\.count\[6\]
*1070 osc\.count\[7\]
*1071 osc\.count\[8\]
*1072 osc\.count\[9\]
*1073 osc\.next_count\[0\]
*1074 osc\.next_count\[10\]
*1075 osc\.next_count\[11\]
*1076 osc\.next_count\[12\]
*1077 osc\.next_count\[13\]
*1078 osc\.next_count\[14\]
*1079 osc\.next_count\[15\]
*1080 osc\.next_count\[1\]
*1081 osc\.next_count\[2\]
*1082 osc\.next_count\[3\]
*1083 osc\.next_count\[4\]
*1084 osc\.next_count\[5\]
*1085 osc\.next_count\[6\]
*1086 osc\.next_count\[7\]
*1087 osc\.next_count\[8\]
*1088 osc\.next_count\[9\]
*1089 pwm\.count\[0\]
*1090 pwm\.count\[1\]
*1091 pwm\.count\[2\]
*1092 pwm\.count\[3\]
*1093 pwm\.count\[4\]
*1094 pwm\.count\[5\]
*1095 pwm\.count\[6\]
*1096 pwm\.count\[7\]
*1097 pwm\.next_count\[0\]
*1098 pwm\.next_count\[1\]
*1099 pwm\.next_count\[2\]
*1100 pwm\.next_count\[3\]
*1101 pwm\.next_count\[4\]
*1102 pwm\.next_count\[5\]
*1103 pwm\.next_count\[6\]
*1104 pwm\.next_count\[7\]
*1105 pwm\.pwm
*1106 seq_div\.D\[0\]
*1107 seq_div\.D\[10\]
*1108 seq_div\.D\[11\]
*1109 seq_div\.D\[12\]
*1110 seq_div\.D\[13\]
*1111 seq_div\.D\[14\]
*1112 seq_div\.D\[15\]
*1113 seq_div\.D\[1\]
*1114 seq_div\.D\[2\]
*1115 seq_div\.D\[3\]
*1116 seq_div\.D\[4\]
*1117 seq_div\.D\[5\]
*1118 seq_div\.D\[6\]
*1119 seq_div\.D\[7\]
*1120 seq_div\.D\[8\]
*1121 seq_div\.D\[9\]
*1122 seq_div\.Q\[0\]
*1123 seq_div\.Q\[1\]
*1124 seq_div\.Q\[2\]
*1125 seq_div\.Q\[3\]
*1126 seq_div\.Q\[4\]
*1127 seq_div\.Q\[5\]
*1128 seq_div\.Q\[6\]
*1129 seq_div\.Q\[7\]
*1130 seq_div\.R\[10\]
*1131 seq_div\.R\[11\]
*1132 seq_div\.R\[12\]
*1133 seq_div\.R\[13\]
*1134 seq_div\.R\[14\]
*1135 seq_div\.R\[15\]
*1136 seq_div\.R\[16\]
*1137 seq_div\.R\[17\]
*1138 seq_div\.R\[18\]
*1139 seq_div\.R\[19\]
*1140 seq_div\.R\[20\]
*1141 seq_div\.R\[21\]
*1142 seq_div\.R\[22\]
*1143 seq_div\.R\[23\]
*1144 seq_div\.R\[8\]
*1145 seq_div\.R\[9\]
*1146 seq_div\.count_div\[0\]
*1147 seq_div\.count_div\[1\]
*1148 seq_div\.count_div\[2\]
*1149 seq_div\.dividend\[0\]
*1150 seq_div\.dividend\[10\]
*1151 seq_div\.dividend\[11\]
*1152 seq_div\.dividend\[12\]
*1153 seq_div\.dividend\[13\]
*1154 seq_div\.dividend\[14\]
*1155 seq_div\.dividend\[15\]
*1156 seq_div\.dividend\[1\]
*1157 seq_div\.dividend\[2\]
*1158 seq_div\.dividend\[3\]
*1159 seq_div\.dividend\[4\]
*1160 seq_div\.dividend\[5\]
*1161 seq_div\.dividend\[6\]
*1162 seq_div\.dividend\[7\]
*1163 seq_div\.dividend\[8\]
*1164 seq_div\.dividend\[9\]
*1165 seq_div\.q_out\[0\]
*1166 seq_div\.q_out\[1\]
*1167 seq_div\.q_out\[2\]
*1168 seq_div\.q_out\[3\]
*1169 seq_div\.q_out\[4\]
*1170 seq_div\.q_out\[5\]
*1171 seq_div\.q_out\[6\]
*1172 seq_div\.q_out\[7\]
*1173 seq_div\.state\[0\]
*1174 seq_div\.state\[1\]
*1175 FILLER_0_0_109
*1176 FILLER_0_0_113
*1177 FILLER_0_0_121
*1178 FILLER_0_0_125
*1179 FILLER_0_0_137
*1180 FILLER_0_0_141
*1181 FILLER_0_0_153
*1182 FILLER_0_0_165
*1183 FILLER_0_0_169
*1184 FILLER_0_0_18
*1185 FILLER_0_0_181
*1186 FILLER_0_0_193
*1187 FILLER_0_0_203
*1188 FILLER_0_0_215
*1189 FILLER_0_0_223
*1190 FILLER_0_0_225
*1191 FILLER_0_0_237
*1192 FILLER_0_0_249
*1193 FILLER_0_0_253
*1194 FILLER_0_0_258
*1195 FILLER_0_0_26
*1196 FILLER_0_0_270
*1197 FILLER_0_0_278
*1198 FILLER_0_0_281
*1199 FILLER_0_0_29
*1200 FILLER_0_0_293
*1201 FILLER_0_0_305
*1202 FILLER_0_0_309
*1203 FILLER_0_0_321
*1204 FILLER_0_0_328
*1205 FILLER_0_0_337
*1206 FILLER_0_0_349
*1207 FILLER_0_0_357
*1208 FILLER_0_0_41
*1209 FILLER_0_0_49
*1210 FILLER_0_0_55
*1211 FILLER_0_0_57
*1212 FILLER_0_0_6
*1213 FILLER_0_0_69
*1214 FILLER_0_0_81
*1215 FILLER_0_0_85
*1216 FILLER_0_0_97
*1217 FILLER_0_10_109
*1218 FILLER_0_10_117
*1219 FILLER_0_10_141
*1220 FILLER_0_10_15
*1221 FILLER_0_10_153
*1222 FILLER_0_10_164
*1223 FILLER_0_10_172
*1224 FILLER_0_10_187
*1225 FILLER_0_10_195
*1226 FILLER_0_10_197
*1227 FILLER_0_10_214
*1228 FILLER_0_10_226
*1229 FILLER_0_10_237
*1230 FILLER_0_10_247
*1231 FILLER_0_10_251
*1232 FILLER_0_10_27
*1233 FILLER_0_10_270
*1234 FILLER_0_10_285
*1235 FILLER_0_10_29
*1236 FILLER_0_10_291
*1237 FILLER_0_10_3
*1238 FILLER_0_10_301
*1239 FILLER_0_10_307
*1240 FILLER_0_10_309
*1241 FILLER_0_10_326
*1242 FILLER_0_10_338
*1243 FILLER_0_10_41
*1244 FILLER_0_10_53
*1245 FILLER_0_10_65
*1246 FILLER_0_10_77
*1247 FILLER_0_10_83
*1248 FILLER_0_10_85
*1249 FILLER_0_10_97
*1250 FILLER_0_11_105
*1251 FILLER_0_11_111
*1252 FILLER_0_11_113
*1253 FILLER_0_11_125
*1254 FILLER_0_11_137
*1255 FILLER_0_11_149
*1256 FILLER_0_11_15
*1257 FILLER_0_11_161
*1258 FILLER_0_11_167
*1259 FILLER_0_11_169
*1260 FILLER_0_11_177
*1261 FILLER_0_11_183
*1262 FILLER_0_11_195
*1263 FILLER_0_11_203
*1264 FILLER_0_11_215
*1265 FILLER_0_11_221
*1266 FILLER_0_11_225
*1267 FILLER_0_11_264
*1268 FILLER_0_11_27
*1269 FILLER_0_11_278
*1270 FILLER_0_11_284
*1271 FILLER_0_11_292
*1272 FILLER_0_11_3
*1273 FILLER_0_11_313
*1274 FILLER_0_11_325
*1275 FILLER_0_11_330
*1276 FILLER_0_11_344
*1277 FILLER_0_11_356
*1278 FILLER_0_11_39
*1279 FILLER_0_11_51
*1280 FILLER_0_11_55
*1281 FILLER_0_11_57
*1282 FILLER_0_11_69
*1283 FILLER_0_11_81
*1284 FILLER_0_11_93
*1285 FILLER_0_12_100
*1286 FILLER_0_12_108
*1287 FILLER_0_12_115
*1288 FILLER_0_12_127
*1289 FILLER_0_12_139
*1290 FILLER_0_12_141
*1291 FILLER_0_12_145
*1292 FILLER_0_12_15
*1293 FILLER_0_12_169
*1294 FILLER_0_12_182
*1295 FILLER_0_12_189
*1296 FILLER_0_12_195
*1297 FILLER_0_12_197
*1298 FILLER_0_12_209
*1299 FILLER_0_12_222
*1300 FILLER_0_12_228
*1301 FILLER_0_12_240
*1302 FILLER_0_12_247
*1303 FILLER_0_12_251
*1304 FILLER_0_12_256
*1305 FILLER_0_12_267
*1306 FILLER_0_12_27
*1307 FILLER_0_12_29
*1308 FILLER_0_12_3
*1309 FILLER_0_12_301
*1310 FILLER_0_12_307
*1311 FILLER_0_12_309
*1312 FILLER_0_12_321
*1313 FILLER_0_12_339
*1314 FILLER_0_12_352
*1315 FILLER_0_12_360
*1316 FILLER_0_12_41
*1317 FILLER_0_12_53
*1318 FILLER_0_12_65
*1319 FILLER_0_12_77
*1320 FILLER_0_12_83
*1321 FILLER_0_12_89
*1322 FILLER_0_13_102
*1323 FILLER_0_13_127
*1324 FILLER_0_13_138
*1325 FILLER_0_13_15
*1326 FILLER_0_13_166
*1327 FILLER_0_13_169
*1328 FILLER_0_13_186
*1329 FILLER_0_13_209
*1330 FILLER_0_13_230
*1331 FILLER_0_13_236
*1332 FILLER_0_13_246
*1333 FILLER_0_13_255
*1334 FILLER_0_13_267
*1335 FILLER_0_13_276
*1336 FILLER_0_13_290
*1337 FILLER_0_13_3
*1338 FILLER_0_13_302
*1339 FILLER_0_13_317
*1340 FILLER_0_13_325
*1341 FILLER_0_13_333
*1342 FILLER_0_13_337
*1343 FILLER_0_13_349
*1344 FILLER_0_13_361
*1345 FILLER_0_13_38
*1346 FILLER_0_13_50
*1347 FILLER_0_13_57
*1348 FILLER_0_13_69
*1349 FILLER_0_13_75
*1350 FILLER_0_14_115
*1351 FILLER_0_14_119
*1352 FILLER_0_14_138
*1353 FILLER_0_14_141
*1354 FILLER_0_14_15
*1355 FILLER_0_14_153
*1356 FILLER_0_14_165
*1357 FILLER_0_14_177
*1358 FILLER_0_14_188
*1359 FILLER_0_14_197
*1360 FILLER_0_14_209
*1361 FILLER_0_14_221
*1362 FILLER_0_14_229
*1363 FILLER_0_14_253
*1364 FILLER_0_14_268
*1365 FILLER_0_14_27
*1366 FILLER_0_14_286
*1367 FILLER_0_14_29
*1368 FILLER_0_14_3
*1369 FILLER_0_14_306
*1370 FILLER_0_14_329
*1371 FILLER_0_14_341
*1372 FILLER_0_14_41
*1373 FILLER_0_14_45
*1374 FILLER_0_14_50
*1375 FILLER_0_14_64
*1376 FILLER_0_14_79
*1377 FILLER_0_14_83
*1378 FILLER_0_14_91
*1379 FILLER_0_15_101
*1380 FILLER_0_15_109
*1381 FILLER_0_15_113
*1382 FILLER_0_15_125
*1383 FILLER_0_15_137
*1384 FILLER_0_15_149
*1385 FILLER_0_15_15
*1386 FILLER_0_15_161
*1387 FILLER_0_15_167
*1388 FILLER_0_15_169
*1389 FILLER_0_15_208
*1390 FILLER_0_15_220
*1391 FILLER_0_15_225
*1392 FILLER_0_15_240
*1393 FILLER_0_15_252
*1394 FILLER_0_15_277
*1395 FILLER_0_15_29
*1396 FILLER_0_15_290
*1397 FILLER_0_15_3
*1398 FILLER_0_15_301
*1399 FILLER_0_15_313
*1400 FILLER_0_15_323
*1401 FILLER_0_15_352
*1402 FILLER_0_15_360
*1403 FILLER_0_15_37
*1404 FILLER_0_15_49
*1405 FILLER_0_15_55
*1406 FILLER_0_15_65
*1407 FILLER_0_15_77
*1408 FILLER_0_15_89
*1409 FILLER_0_16_102
*1410 FILLER_0_16_114
*1411 FILLER_0_16_122
*1412 FILLER_0_16_136
*1413 FILLER_0_16_141
*1414 FILLER_0_16_170
*1415 FILLER_0_16_182
*1416 FILLER_0_16_194
*1417 FILLER_0_16_197
*1418 FILLER_0_16_209
*1419 FILLER_0_16_218
*1420 FILLER_0_16_23
*1421 FILLER_0_16_230
*1422 FILLER_0_16_237
*1423 FILLER_0_16_242
*1424 FILLER_0_16_248
*1425 FILLER_0_16_253
*1426 FILLER_0_16_265
*1427 FILLER_0_16_27
*1428 FILLER_0_16_277
*1429 FILLER_0_16_29
*1430 FILLER_0_16_301
*1431 FILLER_0_16_307
*1432 FILLER_0_16_323
*1433 FILLER_0_16_340
*1434 FILLER_0_16_352
*1435 FILLER_0_16_360
*1436 FILLER_0_16_37
*1437 FILLER_0_16_49
*1438 FILLER_0_16_63
*1439 FILLER_0_16_83
*1440 FILLER_0_16_85
*1441 FILLER_0_16_94
*1442 FILLER_0_17_121
*1443 FILLER_0_17_141
*1444 FILLER_0_17_15
*1445 FILLER_0_17_153
*1446 FILLER_0_17_158
*1447 FILLER_0_17_162
*1448 FILLER_0_17_203
*1449 FILLER_0_17_214
*1450 FILLER_0_17_241
*1451 FILLER_0_17_253
*1452 FILLER_0_17_264
*1453 FILLER_0_17_276
*1454 FILLER_0_17_281
*1455 FILLER_0_17_293
*1456 FILLER_0_17_3
*1457 FILLER_0_17_319
*1458 FILLER_0_17_32
*1459 FILLER_0_17_333
*1460 FILLER_0_17_337
*1461 FILLER_0_17_349
*1462 FILLER_0_17_361
*1463 FILLER_0_17_44
*1464 FILLER_0_17_81
*1465 FILLER_0_18_104
*1466 FILLER_0_18_113
*1467 FILLER_0_18_121
*1468 FILLER_0_18_135
*1469 FILLER_0_18_139
*1470 FILLER_0_18_141
*1471 FILLER_0_18_15
*1472 FILLER_0_18_153
*1473 FILLER_0_18_165
*1474 FILLER_0_18_191
*1475 FILLER_0_18_195
*1476 FILLER_0_18_197
*1477 FILLER_0_18_205
*1478 FILLER_0_18_209
*1479 FILLER_0_18_21
*1480 FILLER_0_18_217
*1481 FILLER_0_18_236
*1482 FILLER_0_18_250
*1483 FILLER_0_18_273
*1484 FILLER_0_18_3
*1485 FILLER_0_18_304
*1486 FILLER_0_18_322
*1487 FILLER_0_18_340
*1488 FILLER_0_18_358
*1489 FILLER_0_18_48
*1490 FILLER_0_18_76
*1491 FILLER_0_18_92
*1492 FILLER_0_19_101
*1493 FILLER_0_19_109
*1494 FILLER_0_19_113
*1495 FILLER_0_19_125
*1496 FILLER_0_19_137
*1497 FILLER_0_19_149
*1498 FILLER_0_19_15
*1499 FILLER_0_19_163
*1500 FILLER_0_19_167
*1501 FILLER_0_19_169
*1502 FILLER_0_19_173
*1503 FILLER_0_19_179
*1504 FILLER_0_19_191
*1505 FILLER_0_19_203
*1506 FILLER_0_19_215
*1507 FILLER_0_19_223
*1508 FILLER_0_19_225
*1509 FILLER_0_19_240
*1510 FILLER_0_19_244
*1511 FILLER_0_19_259
*1512 FILLER_0_19_27
*1513 FILLER_0_19_271
*1514 FILLER_0_19_279
*1515 FILLER_0_19_287
*1516 FILLER_0_19_3
*1517 FILLER_0_19_301
*1518 FILLER_0_19_313
*1519 FILLER_0_19_325
*1520 FILLER_0_19_329
*1521 FILLER_0_19_337
*1522 FILLER_0_19_360
*1523 FILLER_0_19_39
*1524 FILLER_0_19_51
*1525 FILLER_0_19_55
*1526 FILLER_0_19_57
*1527 FILLER_0_19_69
*1528 FILLER_0_19_81
*1529 FILLER_0_19_85
*1530 FILLER_0_19_89
*1531 FILLER_0_1_105
*1532 FILLER_0_1_111
*1533 FILLER_0_1_113
*1534 FILLER_0_1_125
*1535 FILLER_0_1_137
*1536 FILLER_0_1_149
*1537 FILLER_0_1_15
*1538 FILLER_0_1_161
*1539 FILLER_0_1_167
*1540 FILLER_0_1_169
*1541 FILLER_0_1_181
*1542 FILLER_0_1_193
*1543 FILLER_0_1_205
*1544 FILLER_0_1_217
*1545 FILLER_0_1_223
*1546 FILLER_0_1_225
*1547 FILLER_0_1_237
*1548 FILLER_0_1_249
*1549 FILLER_0_1_261
*1550 FILLER_0_1_27
*1551 FILLER_0_1_273
*1552 FILLER_0_1_279
*1553 FILLER_0_1_281
*1554 FILLER_0_1_293
*1555 FILLER_0_1_3
*1556 FILLER_0_1_305
*1557 FILLER_0_1_317
*1558 FILLER_0_1_329
*1559 FILLER_0_1_335
*1560 FILLER_0_1_337
*1561 FILLER_0_1_349
*1562 FILLER_0_1_361
*1563 FILLER_0_1_39
*1564 FILLER_0_1_51
*1565 FILLER_0_1_55
*1566 FILLER_0_1_57
*1567 FILLER_0_1_69
*1568 FILLER_0_1_81
*1569 FILLER_0_1_93
*1570 FILLER_0_20_101
*1571 FILLER_0_20_138
*1572 FILLER_0_20_141
*1573 FILLER_0_20_165
*1574 FILLER_0_20_177
*1575 FILLER_0_20_18
*1576 FILLER_0_20_189
*1577 FILLER_0_20_195
*1578 FILLER_0_20_233
*1579 FILLER_0_20_26
*1580 FILLER_0_20_262
*1581 FILLER_0_20_268
*1582 FILLER_0_20_289
*1583 FILLER_0_20_299
*1584 FILLER_0_20_307
*1585 FILLER_0_20_309
*1586 FILLER_0_20_315
*1587 FILLER_0_20_333
*1588 FILLER_0_20_345
*1589 FILLER_0_20_35
*1590 FILLER_0_20_357
*1591 FILLER_0_20_361
*1592 FILLER_0_20_43
*1593 FILLER_0_20_49
*1594 FILLER_0_20_6
*1595 FILLER_0_20_62
*1596 FILLER_0_20_70
*1597 FILLER_0_20_77
*1598 FILLER_0_20_83
*1599 FILLER_0_21_107
*1600 FILLER_0_21_111
*1601 FILLER_0_21_118
*1602 FILLER_0_21_126
*1603 FILLER_0_21_142
*1604 FILLER_0_21_15
*1605 FILLER_0_21_165
*1606 FILLER_0_21_169
*1607 FILLER_0_21_181
*1608 FILLER_0_21_198
*1609 FILLER_0_21_206
*1610 FILLER_0_21_214
*1611 FILLER_0_21_222
*1612 FILLER_0_21_225
*1613 FILLER_0_21_23
*1614 FILLER_0_21_237
*1615 FILLER_0_21_268
*1616 FILLER_0_21_284
*1617 FILLER_0_21_290
*1618 FILLER_0_21_3
*1619 FILLER_0_21_300
*1620 FILLER_0_21_312
*1621 FILLER_0_21_322
*1622 FILLER_0_21_331
*1623 FILLER_0_21_335
*1624 FILLER_0_21_342
*1625 FILLER_0_21_354
*1626 FILLER_0_21_54
*1627 FILLER_0_21_57
*1628 FILLER_0_21_66
*1629 FILLER_0_21_74
*1630 FILLER_0_21_90
*1631 FILLER_0_21_99
*1632 FILLER_0_22_105
*1633 FILLER_0_22_115
*1634 FILLER_0_22_123
*1635 FILLER_0_22_138
*1636 FILLER_0_22_141
*1637 FILLER_0_22_149
*1638 FILLER_0_22_15
*1639 FILLER_0_22_167
*1640 FILLER_0_22_171
*1641 FILLER_0_22_178
*1642 FILLER_0_22_191
*1643 FILLER_0_22_195
*1644 FILLER_0_22_211
*1645 FILLER_0_22_217
*1646 FILLER_0_22_228
*1647 FILLER_0_22_232
*1648 FILLER_0_22_246
*1649 FILLER_0_22_253
*1650 FILLER_0_22_265
*1651 FILLER_0_22_27
*1652 FILLER_0_22_278
*1653 FILLER_0_22_29
*1654 FILLER_0_22_3
*1655 FILLER_0_22_309
*1656 FILLER_0_22_321
*1657 FILLER_0_22_342
*1658 FILLER_0_22_35
*1659 FILLER_0_22_354
*1660 FILLER_0_22_57
*1661 FILLER_0_22_63
*1662 FILLER_0_22_72
*1663 FILLER_0_22_85
*1664 FILLER_0_22_97
*1665 FILLER_0_23_103
*1666 FILLER_0_23_109
*1667 FILLER_0_23_113
*1668 FILLER_0_23_124
*1669 FILLER_0_23_145
*1670 FILLER_0_23_15
*1671 FILLER_0_23_153
*1672 FILLER_0_23_159
*1673 FILLER_0_23_176
*1674 FILLER_0_23_190
*1675 FILLER_0_23_194
*1676 FILLER_0_23_225
*1677 FILLER_0_23_233
*1678 FILLER_0_23_251
*1679 FILLER_0_23_263
*1680 FILLER_0_23_267
*1681 FILLER_0_23_277
*1682 FILLER_0_23_281
*1683 FILLER_0_23_293
*1684 FILLER_0_23_3
*1685 FILLER_0_23_300
*1686 FILLER_0_23_312
*1687 FILLER_0_23_320
*1688 FILLER_0_23_337
*1689 FILLER_0_23_345
*1690 FILLER_0_23_357
*1691 FILLER_0_23_52
*1692 FILLER_0_23_57
*1693 FILLER_0_23_61
*1694 FILLER_0_23_71
*1695 FILLER_0_23_77
*1696 FILLER_0_23_85
*1697 FILLER_0_23_95
*1698 FILLER_0_24_109
*1699 FILLER_0_24_118
*1700 FILLER_0_24_133
*1701 FILLER_0_24_139
*1702 FILLER_0_24_141
*1703 FILLER_0_24_147
*1704 FILLER_0_24_153
*1705 FILLER_0_24_178
*1706 FILLER_0_24_185
*1707 FILLER_0_24_193
*1708 FILLER_0_24_197
*1709 FILLER_0_24_206
*1710 FILLER_0_24_214
*1711 FILLER_0_24_229
*1712 FILLER_0_24_246
*1713 FILLER_0_24_253
*1714 FILLER_0_24_27
*1715 FILLER_0_24_288
*1716 FILLER_0_24_29
*1717 FILLER_0_24_298
*1718 FILLER_0_24_3
*1719 FILLER_0_24_306
*1720 FILLER_0_24_321
*1721 FILLER_0_24_333
*1722 FILLER_0_24_345
*1723 FILLER_0_24_357
*1724 FILLER_0_24_361
*1725 FILLER_0_24_41
*1726 FILLER_0_24_72
*1727 FILLER_0_24_82
*1728 FILLER_0_24_85
*1729 FILLER_0_24_96
*1730 FILLER_0_25_109
*1731 FILLER_0_25_113
*1732 FILLER_0_25_125
*1733 FILLER_0_25_134
*1734 FILLER_0_25_146
*1735 FILLER_0_25_15
*1736 FILLER_0_25_152
*1737 FILLER_0_25_159
*1738 FILLER_0_25_167
*1739 FILLER_0_25_169
*1740 FILLER_0_25_181
*1741 FILLER_0_25_185
*1742 FILLER_0_25_207
*1743 FILLER_0_25_219
*1744 FILLER_0_25_223
*1745 FILLER_0_25_234
*1746 FILLER_0_25_24
*1747 FILLER_0_25_270
*1748 FILLER_0_25_281
*1749 FILLER_0_25_3
*1750 FILLER_0_25_303
*1751 FILLER_0_25_307
*1752 FILLER_0_25_316
*1753 FILLER_0_25_32
*1754 FILLER_0_25_331
*1755 FILLER_0_25_335