*SPEF "ieee 1481-1999"
*DESIGN "top8227"
*DATE "11:11:11 Fri 11 11, 1111"
*VENDOR "OpenRCX"
*PROGRAM "Parallel Extraction"
*VERSION "1.0"
*DESIGN_FLOW "NAME_SCOPE LOCAL" "PIN_CAP NONE"
*DIVIDER /
*DELIMITER :
*BUS_DELIMITER []
*T_UNIT 1 NS
*C_UNIT 1 PF
*R_UNIT 1 OHM
*L_UNIT 1 HENRY

*NAME_MAP
*1 M10ClkOut
*4 addressBusHigh[0]
*5 addressBusHigh[1]
*6 addressBusHigh[2]
*7 addressBusHigh[3]
*8 addressBusHigh[4]
*9 addressBusHigh[5]
*10 addressBusHigh[6]
*11 addressBusHigh[7]
*12 addressBusLow[0]
*13 addressBusLow[1]
*14 addressBusLow[2]
*15 addressBusLow[3]
*16 addressBusLow[4]
*17 addressBusLow[5]
*18 addressBusLow[6]
*19 addressBusLow[7]
*20 clk
*21 dataBusEnable
*22 dataBusInput[0]
*23 dataBusInput[1]
*24 dataBusInput[2]
*25 dataBusInput[3]
*26 dataBusInput[4]
*27 dataBusInput[5]
*28 dataBusInput[6]
*29 dataBusInput[7]
*30 dataBusOutput[0]
*31 dataBusOutput[1]
*32 dataBusOutput[2]
*33 dataBusOutput[3]
*34 dataBusOutput[4]
*35 dataBusOutput[5]
*36 dataBusOutput[6]
*37 dataBusOutput[7]
*38 dataBusSelect
*39 functionalClockOut
*40 interruptRequest
*41 nonMaskableInterrupt
*42 nrst
*43 readNotWrite
*44 ready
*45 setOverflow
*46 sync
*47 _0000_
*48 _0001_
*49 _0002_
*50 _0003_
*51 _0004_
*52 _0005_
*53 _0006_
*54 _0007_
*55 _0008_
*56 _0009_
*57 _0010_
*58 _0011_
*59 _0012_
*60 _0013_
*61 _0014_
*62 _0015_
*63 _0016_
*64 _0017_
*65 _0018_
*66 _0019_
*67 _0020_
*68 _0021_
*69 _0022_
*70 _0023_
*71 _0024_
*72 _0025_
*73 _0026_
*74 _0027_
*75 _0028_
*76 _0029_
*77 _0030_
*78 _0031_
*79 _0032_
*80 _0033_
*81 _0034_
*82 _0035_
*83 _0036_
*84 _0037_
*85 _0038_
*86 _0039_
*87 _0040_
*88 _0041_
*89 _0042_
*90 _0043_
*91 _0044_
*92 _0045_
*93 _0046_
*94 _0047_
*95 _0048_
*96 _0049_
*97 _0050_
*98 _0051_
*99 _0052_
*100 _0053_
*101 _0054_
*102 _0055_
*103 _0056_
*104 _0057_
*105 _0058_
*106 _0059_
*107 _0060_
*108 _0061_
*109 _0062_
*110 _0063_
*111 _0064_
*112 _0065_
*113 _0066_
*114 _0067_
*115 _0068_
*116 _0069_
*117 _0070_
*118 _0071_
*119 _0072_
*120 _0073_
*121 _0074_
*122 _0075_
*123 _0076_
*124 _0077_
*125 _0078_
*126 _0079_
*127 _0080_
*128 _0081_
*129 _0082_
*130 _0083_
*131 _0084_
*132 _0085_
*133 _0086_
*134 _0087_
*135 _0088_
*136 _0089_
*137 _0090_
*138 _0091_
*139 _0092_
*140 _0093_
*141 _0094_
*142 _0095_
*143 _0096_
*144 _0097_
*145 _0098_
*146 _0099_
*147 _0100_
*148 _0101_
*149 _0102_
*150 _0103_
*151 _0104_
*152 _0105_
*153 _0106_
*154 _0107_
*155 _0108_
*156 _0109_
*157 _0110_
*158 _0111_
*159 _0112_
*160 _0113_
*161 _0114_
*162 _0115_
*163 _0116_
*164 _0117_
*165 _0118_
*166 _0119_
*167 _0120_
*168 _0121_
*169 _0122_
*170 _0123_
*171 _0124_
*172 _0125_
*173 _0126_
*174 _0127_
*175 _0128_
*176 _0129_
*177 _0130_
*178 _0131_
*179 _0132_
*180 _0133_
*181 _0134_
*182 _0135_
*183 _0136_
*184 _0137_
*185 _0138_
*186 _0139_
*187 _0140_
*188 _0141_
*189 _0142_
*190 _0143_
*191 _0144_
*192 _0145_
*193 _0146_
*194 _0147_
*195 _0148_
*196 _0149_
*197 _0150_
*198 _0151_
*199 _0152_
*200 _0153_
*201 _0154_
*202 _0155_
*203 _0156_
*204 _0157_
*205 _0158_
*206 _0159_
*207 _0160_
*208 _0161_
*209 _0162_
*210 _0163_
*211 _0164_
*212 _0165_
*213 _0166_
*214 _0167_
*215 _0168_
*216 _0169_
*217 _0170_
*218 _0171_
*219 _0172_
*220 _0173_
*221 _0174_
*222 _0175_
*223 _0176_
*224 _0177_
*225 _0178_
*226 _0179_
*227 _0180_
*228 _0181_
*229 _0182_
*230 _0183_
*231 _0184_
*232 _0185_
*233 _0186_
*234 _0187_
*235 _0188_
*236 _0189_
*237 _0190_
*238 _0191_
*239 _0192_
*240 _0193_
*241 _0194_
*242 _0195_
*243 _0196_
*244 _0197_
*245 _0198_
*246 _0199_
*247 _0200_
*248 _0201_
*249 _0202_
*250 _0203_
*251 _0204_
*252 _0205_
*253 _0206_
*254 _0207_
*255 _0208_
*256 _0209_
*257 _0210_
*258 _0211_
*259 _0212_
*260 _0213_
*261 _0214_
*262 _0215_
*263 _0216_
*264 _0217_
*265 _0218_
*266 _0219_
*267 _0220_
*268 _0221_
*269 _0222_
*270 _0223_
*271 _0224_
*272 _0225_
*273 _0226_
*274 _0227_
*275 _0228_
*276 _0229_
*277 _0230_
*278 _0231_
*279 _0232_
*280 _0233_
*281 _0234_
*282 _0235_
*283 _0236_
*284 _0237_
*285 _0238_
*286 _0239_
*287 _0240_
*288 _0241_
*289 _0242_
*290 _0243_
*291 _0244_
*292 _0245_
*293 _0246_
*294 _0247_
*295 _0248_
*296 _0249_
*297 _0250_
*298 _0251_
*299 _0252_
*300 _0253_
*301 _0254_
*302 _0255_
*303 _0256_
*304 _0257_
*305 _0258_
*306 _0259_
*307 _0260_
*308 _0261_
*309 _0262_
*310 _0263_
*311 _0264_
*312 _0265_
*313 _0266_
*314 _0267_
*315 _0268_
*316 _0269_
*317 _0270_
*318 _0271_
*319 _0272_
*320 _0273_
*321 _0274_
*322 _0275_
*323 _0276_
*324 _0277_
*325 _0278_
*326 _0279_
*327 _0280_
*328 _0281_
*329 _0282_
*330 _0283_
*331 _0284_
*332 _0285_
*333 _0286_
*334 _0287_
*335 _0288_
*336 _0289_
*337 _0290_
*338 _0291_
*339 _0292_
*340 _0293_
*341 _0294_
*342 _0295_
*343 _0296_
*344 _0297_
*345 _0298_
*346 _0299_
*347 _0300_
*348 _0301_
*349 _0302_
*350 _0303_
*351 _0304_
*352 _0305_
*353 _0306_
*354 _0307_
*355 _0308_
*356 _0309_
*357 _0310_
*358 _0311_
*359 _0312_
*360 _0313_
*361 _0314_
*362 _0315_
*363 _0316_
*364 _0317_
*365 _0318_
*366 _0319_
*367 _0320_
*368 _0321_
*369 _0322_
*370 _0323_
*371 _0324_
*372 _0325_
*373 _0326_
*374 _0327_
*375 _0328_
*376 _0329_
*377 _0330_
*378 _0331_
*379 _0332_
*380 _0333_
*381 _0334_
*382 _0335_
*383 _0336_
*384 _0337_
*385 _0338_
*386 _0339_
*387 _0340_
*388 _0341_
*389 _0342_
*390 _0343_
*391 _0344_
*392 _0345_
*393 _0346_
*394 _0347_
*395 _0348_
*396 _0349_
*397 _0350_
*398 _0351_
*399 _0352_
*400 _0353_
*401 _0354_
*402 _0355_
*403 _0356_
*404 _0357_
*405 _0358_
*406 _0359_
*407 _0360_
*408 _0361_
*409 _0362_
*410 _0363_
*411 _0364_
*412 _0365_
*413 _0366_
*414 _0367_
*415 _0368_
*416 _0369_
*417 _0370_
*418 _0371_
*419 _0372_
*420 _0373_
*421 _0374_
*422 _0375_
*423 _0376_
*424 _0377_
*425 _0378_
*426 _0379_
*427 _0380_
*428 _0381_
*429 _0382_
*430 _0383_
*431 _0384_
*432 _0385_
*433 _0386_
*434 _0387_
*435 _0388_
*436 _0389_
*437 _0390_
*438 _0391_
*439 _0392_
*440 _0393_
*441 _0394_
*442 _0395_
*443 _0396_
*444 _0397_
*445 _0398_
*446 _0399_
*447 _0400_
*448 _0401_
*449 _0402_
*450 _0403_
*451 _0404_
*452 _0405_
*453 _0406_
*454 _0407_
*455 _0408_
*456 _0409_
*457 _0410_
*458 _0411_
*459 _0412_
*460 _0413_
*461 _0414_
*462 _0415_
*463 _0416_
*464 _0417_
*465 _0418_
*466 _0419_
*467 _0420_
*468 _0421_
*469 _0422_
*470 _0423_
*471 _0424_
*472 _0425_
*473 _0426_
*474 _0427_
*475 _0428_
*476 _0429_
*477 _0430_
*478 _0431_
*479 _0432_
*480 _0433_
*481 _0434_
*482 _0435_
*483 _0436_
*484 _0437_
*485 _0438_
*486 _0439_
*487 _0440_
*488 _0441_
*489 _0442_
*490 _0443_
*491 _0444_
*492 _0445_
*493 _0446_
*494 _0447_
*495 _0448_
*496 _0449_
*497 _0450_
*498 _0451_
*499 _0452_
*500 _0453_
*501 _0454_
*502 _0455_
*503 _0456_
*504 _0457_
*505 _0458_
*506 _0459_
*507 _0460_
*508 _0461_
*509 _0462_
*510 _0463_
*511 _0464_
*512 _0465_
*513 _0466_
*514 _0467_
*515 _0468_
*516 _0469_
*517 _0470_
*518 _0471_
*519 _0472_
*520 _0473_
*521 _0474_
*522 _0475_
*523 _0476_
*524 _0477_
*525 _0478_
*526 _0479_
*527 _0480_
*528 _0481_
*529 _0482_
*530 _0483_
*531 _0484_
*532 _0485_
*533 _0486_
*534 _0487_
*535 _0488_
*536 _0489_
*537 _0490_
*538 _0491_
*539 _0492_
*540 _0493_
*541 _0494_
*542 _0495_
*543 _0496_
*544 _0497_
*545 _0498_
*546 _0499_
*547 _0500_
*548 _0501_
*549 _0502_
*550 _0503_
*551 _0504_
*552 _0505_
*553 _0506_
*554 _0507_
*555 _0508_
*556 _0509_
*557 _0510_
*558 _0511_
*559 _0512_
*560 _0513_
*561 _0514_
*562 _0515_
*563 _0516_
*564 _0517_
*565 _0518_
*566 _0519_
*567 _0520_
*568 _0521_
*569 _0522_
*570 _0523_
*571 _0524_
*572 _0525_
*573 _0526_
*574 _0527_
*575 _0528_
*576 _0529_
*577 _0530_
*578 _0531_
*579 _0532_
*580 _0533_
*581 _0534_
*582 _0535_
*583 _0536_
*584 _0537_
*585 _0538_
*586 _0539_
*587 _0540_
*588 _0541_
*589 _0542_
*590 _0543_
*591 _0544_
*592 _0545_
*593 _0546_
*594 _0547_
*595 _0548_
*596 _0549_
*597 _0550_
*598 _0551_
*599 _0552_
*600 _0553_
*601 _0554_
*602 _0555_
*603 _0556_
*604 _0557_
*605 _0558_
*606 _0559_
*607 _0560_
*608 _0561_
*609 _0562_
*610 _0563_
*611 _0564_
*612 _0565_
*613 _0566_
*614 _0567_
*615 _0568_
*616 _0569_
*617 _0570_
*618 _0571_
*619 _0572_
*620 _0573_
*621 _0574_
*622 _0575_
*623 _0576_
*624 _0577_
*625 _0578_
*626 _0579_
*627 _0580_
*628 _0581_
*629 _0582_
*630 _0583_
*631 _0584_
*632 _0585_
*633 _0586_
*634 _0587_
*635 _0588_
*636 _0589_
*637 _0590_
*638 _0591_
*639 _0592_
*640 _0593_
*641 _0594_
*642 _0595_
*643 _0596_
*644 _0597_
*645 _0598_
*646 _0599_
*647 _0600_
*648 _0601_
*649 _0602_
*650 _0603_
*651 _0604_
*652 _0605_
*653 _0606_
*654 _0607_
*655 _0608_
*656 _0609_
*657 _0610_
*658 _0611_
*659 _0612_
*660 _0613_
*661 _0614_
*662 _0615_
*663 _0616_
*664 _0617_
*665 _0618_
*666 _0619_
*667 _0620_
*668 _0621_
*669 _0622_
*670 _0623_
*671 _0624_
*672 _0625_
*673 _0626_
*674 _0627_
*675 _0628_
*676 _0629_
*677 _0630_
*678 _0631_
*679 _0632_
*680 _0633_
*681 _0634_
*682 _0635_
*683 _0636_
*684 _0637_
*685 _0638_
*686 _0639_
*687 _0640_
*688 _0641_
*689 _0642_
*690 _0643_
*691 _0644_
*692 _0645_
*693 _0646_
*694 _0647_
*695 _0648_
*696 _0649_
*697 _0650_
*698 _0651_
*699 _0652_
*700 _0653_
*701 _0654_
*702 _0655_
*703 _0656_
*704 _0657_
*705 _0658_
*706 _0659_
*707 _0660_
*708 _0661_
*709 _0662_
*710 _0663_
*711 _0664_
*712 _0665_
*713 _0666_
*714 _0667_
*715 _0668_
*716 _0669_
*717 _0670_
*718 _0671_
*719 _0672_
*720 _0673_
*721 _0674_
*722 _0675_
*723 _0676_
*724 _0677_
*725 _0678_
*726 _0679_
*727 _0680_
*728 _0681_
*729 _0682_
*730 _0683_
*731 _0684_
*732 _0685_
*733 _0686_
*734 _0687_
*735 _0688_
*736 _0689_
*737 _0690_
*738 _0691_
*739 _0692_
*740 _0693_
*741 _0694_
*742 _0695_
*743 _0696_
*744 _0697_
*745 _0698_
*746 _0699_
*747 _0700_
*748 _0701_
*749 _0702_
*750 _0703_
*751 _0704_
*752 _0705_
*753 _0706_
*754 _0707_
*755 _0708_
*756 _0709_
*757 _0710_
*758 _0711_
*759 _0712_
*760 _0713_
*761 _0714_
*762 _0715_
*763 _0716_
*764 _0717_
*765 _0718_
*766 _0719_
*767 _0720_
*768 _0721_
*769 _0722_
*770 _0723_
*771 _0724_
*772 _0725_
*773 _0726_
*774 _0727_
*775 _0728_
*776 _0729_
*777 _0730_
*778 _0731_
*779 _0732_
*780 _0733_
*781 _0734_
*782 _0735_
*783 _0736_
*784 _0737_
*785 _0738_
*786 _0739_
*787 _0740_
*788 _0741_
*789 _0742_
*790 _0743_
*791 _0744_
*792 _0745_
*793 _0746_
*794 _0747_
*795 _0748_
*796 _0749_
*797 _0750_
*798 _0751_
*799 _0752_
*800 _0753_
*801 _0754_
*802 _0755_
*803 _0756_
*804 _0757_
*805 _0758_
*806 _0759_
*807 _0760_
*808 _0761_
*809 _0762_
*810 _0763_
*811 _0764_
*812 _0765_
*813 _0766_
*814 _0767_
*815 _0768_
*816 _0769_
*817 _0770_
*818 _0771_
*819 _0772_
*820 _0773_
*821 _0774_
*822 _0775_
*823 _0776_
*824 _0777_
*825 _0778_
*826 _0779_
*827 _0780_
*828 _0781_
*829 _0782_
*830 _0783_
*831 _0784_
*832 _0785_
*833 _0786_
*834 _0787_
*835 _0788_
*836 _0789_
*837 _0790_
*838 _0791_
*839 _0792_
*840 _0793_
*841 _0794_
*842 _0795_
*843 _0796_
*844 _0797_
*845 _0798_
*846 _0799_
*847 _0800_
*848 _0801_
*849 _0802_
*850 _0803_
*851 _0804_
*852 _0805_
*853 _0806_
*854 _0807_
*855 _0808_
*856 _0809_
*857 _0810_
*858 _0811_
*859 _0812_
*860 _0813_
*861 _0814_
*862 _0815_
*863 _0816_
*864 _0817_
*865 _0818_
*866 _0819_
*867 _0820_
*868 _0821_
*869 _0822_
*870 _0823_
*871 _0824_
*872 _0825_
*873 _0826_
*874 _0827_
*875 _0828_
*876 _0829_
*877 _0830_
*878 _0831_
*879 _0832_
*880 _0833_
*881 _0834_
*882 _0835_
*883 _0836_
*884 _0837_
*885 _0838_
*886 _0839_
*887 _0840_
*888 _0841_
*889 _0842_
*890 _0843_
*891 _0844_
*892 _0845_
*893 _0846_
*894 _0847_
*895 _0848_
*896 _0849_
*897 _0850_
*898 _0851_
*899 _0852_
*900 _0853_
*901 _0854_
*902 _0855_
*903 _0856_
*904 _0857_
*905 _0858_
*906 _0859_
*907 _0860_
*908 _0861_
*909 _0862_
*910 _0863_
*911 _0864_
*912 _0865_
*913 _0866_
*914 _0867_
*915 _0868_
*916 _0869_
*917 _0870_
*918 _0871_
*919 _0872_
*920 _0873_
*921 _0874_
*922 _0875_
*923 _0876_
*924 _0877_
*925 _0878_
*926 _0879_
*927 _0880_
*928 _0881_
*929 _0882_
*930 _0883_
*931 _0884_
*932 _0885_
*933 _0886_
*934 _0887_
*935 _0888_
*936 _0889_
*937 _0890_
*938 _0891_
*939 _0892_
*940 _0893_
*941 _0894_
*942 _0895_
*943 _0896_
*944 _0897_
*945 _0898_
*946 _0899_
*947 _0900_
*948 _0901_
*949 _0902_
*950 _0903_
*951 _0904_
*952 _0905_
*953 _0906_
*954 _0907_
*955 _0908_
*956 _0909_
*957 _0910_
*958 _0911_
*959 _0912_
*960 _0913_
*961 _0914_
*962 _0915_
*963 _0916_
*964 _0917_
*965 _0918_
*966 _0919_
*967 _0920_
*968 _0921_
*969 _0922_
*970 _0923_
*971 _0924_
*972 _0925_
*973 _0926_
*974 _0927_
*975 _0928_
*976 _0929_
*977 _0930_
*978 _0931_
*979 _0932_
*980 _0933_
*981 _0934_
*982 _0935_
*983 _0936_
*984 _0937_
*985 _0938_
*986 _0939_
*987 _0940_
*988 _0941_
*989 _0942_
*990 _0943_
*991 _0944_
*992 _0945_
*993 _0946_
*994 _0947_
*995 _0948_
*996 _0949_
*997 _0950_
*998 _0951_
*999 _0952_
*1000 _0953_
*1001 _0954_
*1002 _0955_
*1003 _0956_
*1004 _0957_
*1005 _0958_
*1006 _0959_
*1007 _0960_
*1008 _0961_
*1009 _0962_
*1010 _0963_
*1011 _0964_
*1012 _0965_
*1013 _0966_
*1014 _0967_
*1015 _0968_
*1016 _0969_
*1017 _0970_
*1018 _0971_
*1019 _0972_
*1020 _0973_
*1021 _0974_
*1022 _0975_
*1023 _0976_
*1024 _0977_
*1025 _0978_
*1026 _0979_
*1027 _0980_
*1028 _0981_
*1029 _0982_
*1030 _0983_
*1031 _0984_
*1032 _0985_
*1033 _0986_
*1034 _0987_
*1035 _0988_
*1036 _0989_
*1037 _0990_
*1038 _0991_
*1039 _0992_
*1040 _0993_
*1041 _0994_
*1042 _0995_
*1043 _0996_
*1044 _0997_
*1045 _0998_
*1046 _0999_
*1047 _1000_
*1048 _1001_
*1049 _1002_
*1050 _1003_
*1051 _1004_
*1052 _1005_
*1053 _1006_
*1054 _1007_
*1055 _1008_
*1056 _1009_
*1057 _1010_
*1058 _1011_
*1059 _1012_
*1060 _1013_
*1061 _1014_
*1062 _1015_
*1063 _1016_
*1064 _1017_
*1065 _1018_
*1066 _1019_
*1067 _1020_
*1068 _1021_
*1069 _1022_
*1070 _1023_
*1071 _1024_
*1072 _1025_
*1073 _1026_
*1074 _1027_
*1075 _1028_
*1076 _1029_
*1077 _1030_
*1078 _1031_
*1079 _1032_
*1080 _1033_
*1081 _1034_
*1082 _1035_
*1083 _1036_
*1084 _1037_
*1085 _1038_
*1086 _1039_
*1087 _1040_
*1088 _1041_
*1089 _1042_
*1090 _1043_
*1091 _1044_
*1092 _1045_
*1093 _1046_
*1094 _1047_
*1095 _1048_
*1096 _1049_
*1097 _1050_
*1098 _1051_
*1099 _1052_
*1100 _1053_
*1101 _1054_
*1102 _1055_
*1103 _1056_
*1104 _1057_
*1105 _1058_
*1106 _1059_
*1107 _1060_
*1108 _1061_
*1109 _1062_
*1110 _1063_
*1111 _1064_
*1112 _1065_
*1113 _1066_
*1114 _1067_
*1115 _1068_
*1116 _1069_
*1117 _1070_
*1118 _1071_
*1119 _1072_
*1120 _1073_
*1121 _1074_
*1122 _1075_
*1123 _1076_
*1124 _1077_
*1125 _1078_
*1126 _1079_
*1127 _1080_
*1128 _1081_
*1129 _1082_
*1130 _1083_
*1131 _1084_
*1132 _1085_
*1133 _1086_
*1134 _1087_
*1135 _1088_
*1136 _1089_
*1137 _1090_
*1138 _1091_
*1139 _1092_
*1140 _1093_
*1141 _1094_
*1142 _1095_
*1143 _1096_
*1144 _1097_
*1145 _1098_
*1146 _1099_
*1147 _1100_
*1148 _1101_
*1149 _1102_
*1150 _1103_
*1151 _1104_
*1152 _1105_
*1153 _1106_
*1154 _1107_
*1155 _1108_
*1156 _1109_
*1157 _1110_
*1158 _1111_
*1159 _1112_
*1160 _1113_
*1161 _1114_
*1162 _1115_
*1163 _1116_
*1164 _1117_
*1165 _1118_
*1166 _1119_
*1167 _1120_
*1168 _1121_
*1169 _1122_
*1170 _1123_
*1171 _1124_
*1172 _1125_
*1173 _1126_
*1174 _1127_
*1175 _1128_
*1176 _1129_
*1177 _1130_
*1178 _1131_
*1179 _1132_
*1180 _1133_
*1181 _1134_
*1182 _1135_
*1183 _1136_
*1184 _1137_
*1185 _1138_
*1186 _1139_
*1187 _1140_
*1188 _1141_
*1189 _1142_
*1190 _1143_
*1191 _1144_
*1192 _1145_
*1193 _1146_
*1194 _1147_
*1195 _1148_
*1196 _1149_
*1197 _1150_
*1198 _1151_
*1199 _1152_
*1200 _1153_
*1201 _1154_
*1202 _1155_
*1203 _1156_
*1204 _1157_
*1205 _1158_
*1206 _1159_
*1207 _1160_
*1208 _1161_
*1209 _1162_
*1210 _1163_
*1211 _1164_
*1212 _1165_
*1213 _1166_
*1214 _1167_
*1215 _1168_
*1216 _1169_
*1217 _1170_
*1218 _1171_
*1219 _1172_
*1220 _1173_
*1221 _1174_
*1222 _1175_
*1223 _1176_
*1224 _1177_
*1225 _1178_
*1226 _1179_
*1227 _1180_
*1228 _1181_
*1229 _1182_
*1230 _1183_
*1231 _1184_
*1232 _1185_
*1233 _1186_
*1234 _1187_
*1235 _1188_
*1236 _1189_
*1237 _1190_
*1238 _1191_
*1239 _1192_
*1240 _1193_
*1241 _1194_
*1242 _1195_
*1243 _1196_
*1244 _1197_
*1245 _1198_
*1246 _1199_
*1247 _1200_
*1248 _1201_
*1249 _1202_
*1250 _1203_
*1251 _1204_
*1252 _1205_
*1253 _1206_
*1254 _1207_
*1255 _1208_
*1256 _1209_
*1257 _1210_
*1258 _1211_
*1259 _1212_
*1260 _1213_
*1261 _1214_
*1262 _1215_
*1263 _1216_
*1264 _1217_
*1265 _1218_
*1266 _1219_
*1267 _1220_
*1268 _1221_
*1269 _1222_
*1270 _1223_
*1271 _1224_
*1272 _1225_
*1273 _1226_
*1274 _1227_
*1275 _1228_
*1276 _1229_
*1277 _1230_
*1278 _1231_
*1279 _1232_
*1280 _1233_
*1281 _1234_
*1282 _1235_
*1283 _1236_
*1284 _1237_
*1285 _1238_
*1286 _1239_
*1287 _1240_
*1288 _1241_
*1289 _1242_
*1290 _1243_
*1291 _1244_
*1292 _1245_
*1293 _1246_
*1294 _1247_
*1295 _1248_
*1296 _1249_
*1297 _1250_
*1298 _1251_
*1299 _1252_
*1300 _1253_
*1301 _1254_
*1302 _1255_
*1303 _1256_
*1304 _1257_
*1305 _1258_
*1306 _1259_
*1307 _1260_
*1308 _1261_
*1309 _1262_
*1310 _1263_
*1311 _1264_
*1312 _1265_
*1313 _1266_
*1314 _1267_
*1315 _1268_
*1316 _1269_
*1317 _1270_
*1318 _1271_
*1319 _1272_
*1320 _1273_
*1321 _1274_
*1322 _1275_
*1323 _1276_
*1324 _1277_
*1325 _1278_
*1326 _1279_
*1327 _1280_
*1328 _1281_
*1329 _1282_
*1330 _1283_
*1331 _1284_
*1332 _1285_
*1333 _1286_
*1334 _1287_
*1335 _1288_
*1336 _1289_
*1337 _1290_
*1338 _1291_
*1339 _1292_
*1340 _1293_
*1341 _1294_
*1342 _1295_
*1343 _1296_
*1344 _1297_
*1345 _1298_
*1346 _1299_
*1347 _1300_
*1348 _1301_
*1349 _1302_
*1350 _1303_
*1351 _1304_
*1352 _1305_
*1353 _1306_
*1354 _1307_
*1355 _1308_
*1356 _1309_
*1357 _1310_
*1358 _1311_
*1359 _1312_
*1360 _1313_
*1361 _1314_
*1362 _1315_
*1363 _1316_
*1364 _1317_
*1365 _1318_
*1366 _1319_
*1367 _1320_
*1368 _1321_
*1369 _1322_
*1370 _1323_
*1371 _1324_
*1372 _1325_
*1373 _1326_
*1374 _1327_
*1375 _1328_
*1376 _1329_
*1377 _1330_
*1378 _1331_
*1379 _1332_
*1380 _1333_
*1381 _1334_
*1382 _1335_
*1383 _1336_
*1384 _1337_
*1385 _1338_
*1386 _1339_
*1387 _1340_
*1388 _1341_
*1389 _1342_
*1390 _1343_
*1391 _1344_
*1392 _1345_
*1393 _1346_
*1394 _1347_
*1395 _1348_
*1396 _1349_
*1397 _1350_
*1398 _1351_
*1399 _1352_
*1400 _1353_
*1401 _1354_
*1402 _1355_
*1403 _1356_
*1404 _1357_
*1405 _1358_
*1406 _1359_
*1407 _1360_
*1408 _1361_
*1409 _1362_
*1410 _1363_
*1411 _1364_
*1412 _1365_
*1413 _1366_
*1414 _1367_
*1415 _1368_
*1416 _1369_
*1417 _1370_
*1418 _1371_
*1419 _1372_
*1420 _1373_
*1421 _1374_
*1422 _1375_
*1423 _1376_
*1424 _1377_
*1425 _1378_
*1426 _1379_
*1427 _1380_
*1428 _1381_
*1429 _1382_
*1430 _1383_
*1431 _1384_
*1432 _1385_
*1433 _1386_
*1434 _1387_
*1435 _1388_
*1436 _1389_
*1437 _1390_
*1438 _1391_
*1439 _1392_
*1440 _1393_
*1441 _1394_
*1442 _1395_
*1443 _1396_
*1444 _1397_
*1445 _1398_
*1446 _1399_
*1447 _1400_
*1448 _1401_
*1449 _1402_
*1450 _1403_
*1451 _1404_
*1452 _1405_
*1453 _1406_
*1454 _1407_
*1455 _1408_
*1456 _1409_
*1457 _1410_
*1458 _1411_
*1459 _1412_
*1460 _1413_
*1461 _1414_
*1462 _1415_
*1463 _1416_
*1464 _1417_
*1465 _1418_
*1466 _1419_
*1467 _1420_
*1468 _1421_
*1469 _1422_
*1470 _1423_
*1471 _1424_
*1472 _1425_
*1473 _1426_
*1474 _1427_
*1475 _1428_
*1476 _1429_
*1477 _1430_
*1478 _1431_
*1479 _1432_
*1480 _1433_
*1481 _1434_
*1482 _1435_
*1483 _1436_
*1484 _1437_
*1485 _1438_
*1486 _1439_
*1487 _1440_
*1488 _1441_
*1489 _1442_
*1490 _1443_
*1491 _1444_
*1492 _1445_
*1493 _1446_
*1494 _1447_
*1495 _1448_
*1496 _1449_
*1497 _1450_
*1498 _1451_
*1499 _1452_
*1500 _1453_
*1501 _1454_
*1502 _1455_
*1503 _1456_
*1504 _1457_
*1505 _1458_
*1506 _1459_
*1507 _1460_
*1508 _1461_
*1509 _1462_
*1510 _1463_
*1511 _1464_
*1512 _1465_
*1513 _1466_
*1514 _1467_
*1515 _1468_
*1516 _1469_
*1517 _1470_
*1518 _1471_
*1519 _1472_
*1520 _1473_
*1521 _1474_
*1522 _1475_
*1523 _1476_
*1524 _1477_
*1525 _1478_
*1526 _1479_
*1527 _1480_
*1528 _1481_
*1529 _1482_
*1530 _1483_
*1531 _1484_
*1532 _1485_
*1533 _1486_
*1534 _1487_
*1535 _1488_
*1536 _1489_
*1537 _1490_
*1538 _1491_
*1539 _1492_
*1540 _1493_
*1541 _1494_
*1542 _1495_
*1543 _1496_
*1544 _1497_
*1545 _1498_
*1546 _1499_
*1547 _1500_
*1548 _1501_
*1549 _1502_
*1550 branch_ff\.branchBackward
*1551 branch_ff\.branchForward
*1552 clknet_0_clk
*1553 clknet_4_0_0_clk
*1554 clknet_4_10_0_clk
*1555 clknet_4_11_0_clk
*1556 clknet_4_12_0_clk
*1557 clknet_4_13_0_clk
*1558 clknet_4_14_0_clk
*1559 clknet_4_15_0_clk
*1560 clknet_4_1_0_clk
*1561 clknet_4_2_0_clk
*1562 clknet_4_3_0_clk
*1563 clknet_4_4_0_clk
*1564 clknet_4_5_0_clk
*1565 clknet_4_6_0_clk
*1566 clknet_4_7_0_clk
*1567 clknet_4_8_0_clk
*1568 clknet_4_9_0_clk
*1569 demux\.PSR_C
*1570 demux\.PSR_N
*1571 demux\.PSR_V
*1572 demux\.PSR_Z
*1573 demux\.isAddressing
*1574 demux\.nmi
*1575 demux\.reset
*1576 demux\.setInterruptFlag
*1577 demux\.state_machine\.currentAddress\[0\]
*1578 demux\.state_machine\.currentAddress\[10\]
*1579 demux\.state_machine\.currentAddress\[11\]
*1580 demux\.state_machine\.currentAddress\[12\]
*1581 demux\.state_machine\.currentAddress\[1\]
*1582 demux\.state_machine\.currentAddress\[2\]
*1583 demux\.state_machine\.currentAddress\[3\]
*1584 demux\.state_machine\.currentAddress\[4\]
*1585 demux\.state_machine\.currentAddress\[5\]
*1586 demux\.state_machine\.currentAddress\[6\]
*1587 demux\.state_machine\.currentAddress\[7\]
*1588 demux\.state_machine\.currentAddress\[8\]
*1589 demux\.state_machine\.currentAddress\[9\]
*1590 demux\.state_machine\.currentInstruction\[0\]
*1591 demux\.state_machine\.currentInstruction\[1\]
*1592 demux\.state_machine\.currentInstruction\[2\]
*1593 demux\.state_machine\.currentInstruction\[3\]
*1594 demux\.state_machine\.currentInstruction\[4\]
*1595 demux\.state_machine\.currentInstruction\[5\]
*1596 demux\.state_machine\.timeState\[0\]
*1597 demux\.state_machine\.timeState\[1\]
*1598 demux\.state_machine\.timeState\[2\]
*1599 demux\.state_machine\.timeState\[3\]
*1600 demux\.state_machine\.timeState\[4\]
*1601 demux\.state_machine\.timeState\[5\]
*1602 demux\.state_machine\.timeState\[6\]
*1603 free_carry_ff\.freeCarry
*1604 instructionLoader\.interruptInjector\.interruptRequest
*1605 instructionLoader\.interruptInjector\.irqGenerated
*1606 instructionLoader\.interruptInjector\.irqGeneratedFF\.synchronizedIRQ
*1607 instructionLoader\.interruptInjector\.irqSync\.nextQ2
*1608 instructionLoader\.interruptInjector\.nmiGeneratedFF\.nmiRunning
*1609 instructionLoader\.interruptInjector\.nmiGeneratedFF\.synchronizedNMI
*1610 instructionLoader\.interruptInjector\.nmiSync\.in
*1611 instructionLoader\.interruptInjector\.nmiSync\.nextQ2
*1612 instructionLoader\.interruptInjector\.processStatusRegIFlag
*1613 instructionLoader\.interruptInjector\.resetDetected
*1614 internalDataflow\.accRegToDB\[0\]
*1615 internalDataflow\.accRegToDB\[1\]
*1616 internalDataflow\.accRegToDB\[2\]
*1617 internalDataflow\.accRegToDB\[3\]
*1618 internalDataflow\.accRegToDB\[4\]
*1619 internalDataflow\.accRegToDB\[5\]
*1620 internalDataflow\.accRegToDB\[6\]
*1621 internalDataflow\.accRegToDB\[7\]
*1622 internalDataflow\.addressHighBusModule\.busInputs\[16\]
*1623 internalDataflow\.addressHighBusModule\.busInputs\[17\]
*1624 internalDataflow\.addressHighBusModule\.busInputs\[18\]
*1625 internalDataflow\.addressHighBusModule\.busInputs\[19\]
*1626 internalDataflow\.addressHighBusModule\.busInputs\[20\]
*1627 internalDataflow\.addressHighBusModule\.busInputs\[21\]
*1628 internalDataflow\.addressHighBusModule\.busInputs\[22\]
*1629 internalDataflow\.addressHighBusModule\.busInputs\[23\]
*1630 internalDataflow\.addressLowBusModule\.busInputs\[16\]
*1631 internalDataflow\.addressLowBusModule\.busInputs\[17\]
*1632 internalDataflow\.addressLowBusModule\.busInputs\[18\]
*1633 internalDataflow\.addressLowBusModule\.busInputs\[19\]
*1634 internalDataflow\.addressLowBusModule\.busInputs\[20\]
*1635 internalDataflow\.addressLowBusModule\.busInputs\[21\]
*1636 internalDataflow\.addressLowBusModule\.busInputs\[22\]
*1637 internalDataflow\.addressLowBusModule\.busInputs\[23\]
*1638 internalDataflow\.addressLowBusModule\.busInputs\[24\]
*1639 internalDataflow\.addressLowBusModule\.busInputs\[25\]
*1640 internalDataflow\.addressLowBusModule\.busInputs\[26\]
*1641 internalDataflow\.addressLowBusModule\.busInputs\[27\]
*1642 internalDataflow\.addressLowBusModule\.busInputs\[28\]
*1643 internalDataflow\.addressLowBusModule\.busInputs\[29\]
*1644 internalDataflow\.addressLowBusModule\.busInputs\[30\]
*1645 internalDataflow\.addressLowBusModule\.busInputs\[31\]
*1646 internalDataflow\.addressLowBusModule\.busInputs\[32\]
*1647 internalDataflow\.addressLowBusModule\.busInputs\[33\]
*1648 internalDataflow\.addressLowBusModule\.busInputs\[34\]
*1649 internalDataflow\.addressLowBusModule\.busInputs\[35\]
*1650 internalDataflow\.addressLowBusModule\.busInputs\[36\]
*1651 internalDataflow\.addressLowBusModule\.busInputs\[37\]
*1652 internalDataflow\.addressLowBusModule\.busInputs\[38\]
*1653 internalDataflow\.addressLowBusModule\.busInputs\[39\]
*1654 internalDataflow\.dataBusModule\.busInputs\[43\]
*1655 internalDataflow\.psr\.processStatusReg\.stat_buf_nxt\[0\]
*1656 internalDataflow\.psr\.processStatusReg\.stat_buf_nxt\[1\]
*1657 internalDataflow\.psr\.processStatusReg\.stat_buf_nxt\[2\]
*1658 internalDataflow\.psr\.processStatusReg\.stat_buf_nxt\[3\]
*1659 internalDataflow\.psr\.processStatusReg\.stat_buf_nxt\[6\]
*1660 internalDataflow\.stackBusModule\.busInputs\[32\]
*1661 internalDataflow\.stackBusModule\.busInputs\[33\]
*1662 internalDataflow\.stackBusModule\.busInputs\[34\]
*1663 internalDataflow\.stackBusModule\.busInputs\[35\]
*1664 internalDataflow\.stackBusModule\.busInputs\[36\]
*1665 internalDataflow\.stackBusModule\.busInputs\[37\]
*1666 internalDataflow\.stackBusModule\.busInputs\[38\]
*1667 internalDataflow\.stackBusModule\.busInputs\[39\]
*1668 internalDataflow\.stackBusModule\.busInputs\[40\]
*1669 internalDataflow\.stackBusModule\.busInputs\[41\]
*1670 internalDataflow\.stackBusModule\.busInputs\[42\]
*1671 internalDataflow\.stackBusModule\.busInputs\[43\]
*1672 internalDataflow\.stackBusModule\.busInputs\[44\]
*1673 internalDataflow\.stackBusModule\.busInputs\[45\]
*1674 internalDataflow\.stackBusModule\.busInputs\[46\]
*1675 internalDataflow\.stackBusModule\.busInputs\[47\]
*1676 negEdgeDetector\.q1
*1677 net1
*1678 net10
*1679 net100
*1680 net101
*1681 net102
*1682 net103
*1683 net104
*1684 net105
*1685 net106
*1686 net107
*1687 net108
*1688 net109
*1689 net11
*1690 net110
*1691 net111
*1692 net112
*1693 net113
*1694 net114
*1695 net115
*1696 net116
*1697 net117
*1698 net118
*1699 net119
*1700 net12
*1701 net120
*1702 net121
*1703 net122
*1704 net123
*1705 net124
*1706 net125
*1707 net126
*1708 net127
*1709 net128
*1710 net129
*1711 net13
*1712 net130
*1713 net131
*1714 net132
*1715 net133
*1716 net134
*1717 net135
*1718 net14
*1719 net15
*1720 net16
*1721 net17
*1722 net18
*1723 net19
*1724 net2
*1725 net20
*1726 net21
*1727 net22
*1728 net23
*1729 net24
*1730 net25
*1731 net26
*1732 net27
*1733 net28
*1734 net29
*1735 net3
*1736 net30
*1737 net31
*1738 net32
*1739 net33
*1740 net34
*1741 net35
*1742 net36
*1743 net37
*1744 net38
*1745 net39
*1746 net4
*1747 net40
*1748 net41
*1749 net42
*1750 net43
*1751 net44
*1752 net45
*1753 net46
*1754 net47
*1755 net48
*1756 net49
*1757 net5
*1758 net50
*1759 net51
*1760 net52
*1761 net53
*1762 net54
*1763 net55
*1764 net56
*1765 net57
*1766 net58
*1767 net59
*1768 net6
*1769 net60
*1770 net61
*1771 net62
*1772 net63
*1773 net64
*1774 net65
*1775 net66
*1776 net67
*1777 net68
*1778 net69
*1779 net7
*1780 net70
*1781 net71
*1782 net72
*1783 net73
*1784 net74
*1785 net75
*1786 net76
*1787 net77
*1788 net78
*1789 net79
*1790 net8
*1791 net80
*1792 net81
*1793 net82
*1794 net83
*1795 net84
*1796 net85
*1797 net86
*1798 net87
*1799 net88
*1800 net89
*1801 net9
*1802 net90
*1803 net91
*1804 net92
*1805 net93
*1806 net94
*1807 net95
*1808 net96
*1809 net97
*1810 net98
*1811 net99
*1812 pulse_slower\.currentEnableState\[0\]
*1813 pulse_slower\.currentEnableState\[1\]
*1814 pulse_slower\.nextEnableState\[0\]
*1815 pulse_slower\.nextEnableState\[1\]
*1816 ANTENNA_1
*1817 ANTENNA_2
*1818 ANTENNA_3
*1819 FILLER_0_0_109
*1820 FILLER_0_0_113
*1821 FILLER_0_0_121
*1822 FILLER_0_0_133
*1823 FILLER_0_0_139
*1824 FILLER_0_0_141
*1825 FILLER_0_0_153
*1826 FILLER_0_0_163
*1827 FILLER_0_0_167
*1828 FILLER_0_0_169
*1829 FILLER_0_0_181
*1830 FILLER_0_0_19
*1831 FILLER_0_0_193
*1832 FILLER_0_0_197
*1833 FILLER_0_0_205
*1834 FILLER_0_0_210
*1835 FILLER_0_0_222
*1836 FILLER_0_0_225
*1837 FILLER_0_0_237
*1838 FILLER_0_0_247
*1839 FILLER_0_0_251
*1840 FILLER_0_0_253
*1841 FILLER_0_0_265
*1842 FILLER_0_0_27
*1843 FILLER_0_0_277
*1844 FILLER_0_0_281
*1845 FILLER_0_0_289
*1846 FILLER_0_0_29
*1847 FILLER_0_0_301
*1848 FILLER_0_0_307
*1849 FILLER_0_0_309
*1850 FILLER_0_0_321
*1851 FILLER_0_0_331
*1852 FILLER_0_0_335
*1853 FILLER_0_0_337
*1854 FILLER_0_0_349
*1855 FILLER_0_0_361
*1856 FILLER_0_0_365
*1857 FILLER_0_0_37
*1858 FILLER_0_0_373
*1859 FILLER_0_0_385
*1860 FILLER_0_0_391
*1861 FILLER_0_0_393
*1862 FILLER_0_0_405
*1863 FILLER_0_0_415
*1864 FILLER_0_0_419
*1865 FILLER_0_0_421
*1866 FILLER_0_0_49
*1867 FILLER_0_0_55
*1868 FILLER_0_0_57
*1869 FILLER_0_0_69
*1870 FILLER_0_0_7
*1871 FILLER_0_0_79
*1872 FILLER_0_0_83
*1873 FILLER_0_0_85
*1874 FILLER_0_0_97
*1875 FILLER_0_10_104
*1876 FILLER_0_10_120
*1877 FILLER_0_10_127
*1878 FILLER_0_10_137
*1879 FILLER_0_10_141
*1880 FILLER_0_10_154
*1881 FILLER_0_10_164
*1882 FILLER_0_10_168
*1883 FILLER_0_10_183
*1884 FILLER_0_10_195
*1885 FILLER_0_10_204
*1886 FILLER_0_10_21
*1887 FILLER_0_10_212
*1888 FILLER_0_10_221
*1889 FILLER_0_10_229
*1890 FILLER_0_10_239
*1891 FILLER_0_10_251
*1892 FILLER_0_10_27
*1893 FILLER_0_10_275
*1894 FILLER_0_10_287
*1895 FILLER_0_10_299
*1896 FILLER_0_10_307
*1897 FILLER_0_10_309
*1898 FILLER_0_10_317
*1899 FILLER_0_10_355
*1900 FILLER_0_10_359
*1901 FILLER_0_10_370
*1902 FILLER_0_10_382
*1903 FILLER_0_10_394
*1904 FILLER_0_10_414
*1905 FILLER_0_10_429
*1906 FILLER_0_10_49
*1907 FILLER_0_10_59
*1908 FILLER_0_10_71
*1909 FILLER_0_10_82
*1910 FILLER_0_10_9
*1911 FILLER_0_10_93
*1912 FILLER_0_11_111
*1913 FILLER_0_11_113
*1914 FILLER_0_11_139
*1915 FILLER_0_11_145
*1916 FILLER_0_11_15
*1917 FILLER_0_11_153
*1918 FILLER_0_11_165
*1919 FILLER_0_11_177
*1920 FILLER_0_11_211
*1921 FILLER_0_11_223
*1922 FILLER_0_11_225
*1923 FILLER_0_11_251
*1924 FILLER_0_11_257
*1925 FILLER_0_11_263
*1926 FILLER_0_11_27
*1927 FILLER_0_11_275